<?xml version='1.0' encoding='UTF-8'?>
<additional xmlns:xsi="http://www.w3.org/2001/XMLSchema-instance" xsi:noNamespaceSchemaLocation="http://sumo.dlr.de/xsd/additional_file.xsd">
    <location convBoundary="-4363.12,-0.00,4131.82,5108.98" netOffset="-376954.68,-3756478.43" origBoundary="-118.378850,33.941846,-118.287080,33.987932" projParameter="+proj=utm +zone=11 +ellps=WGS84 +datum=WGS84 +units=m +no_defs" />

    <poly color="237,199,199" fill="1" id="127846753" layer="-1.00" shape="2028.63,795.76 1826.00,798.42 1827.07,689.39 2026.97,686.91 2028.63,795.76" type="amenity" />
    <poly color="237,199,199" fill="1" id="127850509" layer="-1.00" shape="1365.13,888.46 1291.04,890.29 1289.42,825.22 1363.51,823.39 1365.13,888.46" type="amenity" />
    <poly color="255,230,230" fill="1" id="407350709" layer="-1.00" shape="1318.80,2388.72 1318.07,2388.74 1318.10,2390.13 1318.81,2390.12 1318.84,2392.70 1316.16,2392.74 1316.15,2392.07 1315.93,2392.08 1315.89,2388.48 1318.80,2388.43 1318.80,2388.72" type="building" />
    <poly color="255,230,230" fill="1" id="407350710" layer="-1.00" shape="1785.98,2239.36 1783.21,2239.43 1783.15,2237.25 1785.93,2237.19 1785.98,2239.36" type="building" />
    <poly color="255,230,230" fill="1" id="407350711" layer="-1.00" shape="1776.97,2235.06 1777.41,2235.71 1776.47,2235.70 1776.46,2242.36 1775.75,2242.35 1775.81,2246.59 1776.37,2246.59 1776.36,2250.78 1775.92,2250.78 1775.91,2251.77 1776.35,2251.75 1776.35,2253.47 1777.06,2253.47 1777.05,2257.48 1781.33,2257.48 1781.34,2253.46 1781.98,2253.47 1781.98,2252.00 1782.53,2252.01 1782.53,2252.58 1784.14,2252.58 1784.14,2252.01 1785.32,2252.01 1785.33,2250.37 1786.15,2250.37 1786.15,2249.21 1785.33,2249.21 1785.33,2247.59 1785.97,2247.59 1785.97,2244.91 1786.88,2244.91 1786.89,2243.04 1785.97,2243.04 1785.97,2241.74 1786.56,2241.73 1786.56,2240.46 1785.98,2240.46 1785.98,2240.11 1788.48,2240.11 1788.49,2235.73 1780.45,2235.72 1780.94,2235.03 1779.99,2234.47 1777.93,2234.50 1776.97,2235.06" type="building" />
    <poly color="255,230,230" fill="1" id="407350712" layer="-1.00" shape="1310.45,2376.36 1310.46,2376.74 1309.81,2376.75 1309.84,2377.96 1310.37,2377.95 1310.39,2378.95 1309.83,2378.97 1309.86,2380.82 1310.37,2380.81 1310.38,2381.78 1309.90,2381.78 1309.91,2382.96 1310.53,2382.95 1310.62,2388.63 1314.70,2388.56 1314.74,2392.16 1314.18,2392.16 1314.18,2392.61 1312.82,2392.63 1312.82,2392.79 1311.40,2392.81 1311.43,2394.30 1310.88,2394.30 1310.89,2395.13 1311.44,2395.13 1311.48,2397.63 1310.77,2397.64 1310.81,2399.43 1311.41,2399.42 1311.41,2399.83 1310.29,2399.84 1310.32,2401.59 1311.58,2401.57 1311.59,2402.43 1315.46,2402.37 1315.48,2403.94 1316.74,2403.92 1316.80,2407.89 1316.23,2407.90 1316.25,2408.93 1316.82,2408.91 1316.83,2409.79 1317.62,2409.77 1317.64,2410.32 1320.86,2410.27 1320.85,2409.72 1321.75,2409.71 1321.49,2392.90 1321.74,2392.91 1321.66,2387.54 1319.17,2387.59 1319.05,2379.07 1317.27,2379.09 1317.23,2376.25 1310.45,2376.36" type="building" />
    <poly color="255,230,230" fill="1" id="407350713" layer="-1.00" shape="1753.07,2044.39 1753.23,2044.39 1753.53,2064.91 1753.33,2064.91 1753.35,2067.14 1768.55,2066.93 1768.04,2030.95 1760.63,2031.06 1760.61,2030.79 1752.88,2030.90 1753.07,2044.39" type="building" />
    <poly color="255,230,230" fill="1" id="407350714" layer="-1.00" shape="1799.36,2336.26 1795.43,2336.33 1795.41,2335.66 1791.33,2335.75 1791.51,2344.84 1790.57,2344.86 1790.65,2348.90 1796.33,2348.78 1796.36,2350.51 1799.65,2350.45 1799.36,2336.26" type="building" />
    <poly color="255,230,230" fill="1" id="407350715" layer="-1.00" shape="1371.28,2107.72 1376.83,2107.63 1376.81,2105.99 1381.42,2105.90 1381.23,2093.76 1377.49,2093.82 1377.52,2095.44 1376.84,2095.45 1376.74,2088.85 1370.97,2088.95 1371.28,2107.72" type="building" />
    <poly color="255,230,230" fill="1" id="407350716" layer="-1.00" shape="1555.25,2252.83 1555.22,2245.96 1555.64,2245.95 1555.60,2239.13 1552.47,2239.15 1552.48,2240.65 1549.71,2240.66 1549.70,2238.42 1545.12,2238.44 1545.20,2252.88 1555.25,2252.83" type="building" />
    <poly color="255,230,230" fill="1" id="407350717" layer="-1.00" shape="1787.82,2396.56 1788.33,2396.54 1788.29,2394.68 1787.73,2394.70 1787.60,2387.88 1778.01,2388.07 1778.28,2401.87 1782.53,2401.80 1782.56,2402.90 1787.94,2402.79 1787.82,2396.56" type="building" />
    <poly color="255,230,230" fill="1" id="407350718" layer="-1.00" shape="1606.75,2401.22 1605.72,2401.23 1605.79,2406.00 1615.64,2405.89 1615.47,2392.47 1612.40,2392.51 1612.38,2390.61 1611.38,2390.62 1611.33,2386.72 1606.57,2386.78 1606.75,2401.22" type="building" />
    <poly color="255,230,230" fill="1" id="407350719" layer="-1.00" shape="1577.83,2189.48 1577.81,2188.31 1576.40,2188.32 1576.41,2189.44 1571.21,2189.50 1571.30,2197.04 1571.01,2197.04 1571.08,2203.46 1581.06,2203.36 1580.90,2189.44 1577.83,2189.48" type="building" />
    <poly color="255,230,230" fill="1" id="407350720" layer="-1.00" shape="1541.97,2033.88 1541.40,2033.89 1541.39,2032.12 1534.58,2032.23 1534.62,2034.11 1534.41,2034.09 1534.92,2070.40 1542.06,2070.38 1541.86,2057.97 1542.31,2057.97 1541.97,2033.88" type="building" />
    <poly color="255,230,230" fill="1" id="407350721" layer="-1.00" shape="1384.92,2286.16 1384.84,2283.51 1384.41,2283.53 1384.25,2278.48 1381.18,2278.58 1381.15,2277.52 1377.52,2277.64 1377.72,2283.86 1377.34,2283.86 1377.43,2286.41 1384.92,2286.16" type="building" />
    <poly color="255,230,230" fill="1" id="407350722" layer="-1.00" shape="1458.13,2253.97 1457.93,2239.25 1452.82,2239.32 1452.81,2238.53 1451.06,2238.55 1451.07,2239.26 1449.15,2239.29 1449.17,2240.90 1449.55,2240.89 1449.73,2254.09 1458.13,2253.97" type="building" />
    <poly color="255,230,230" fill="1" id="407350723" layer="-1.00" shape="1796.98,2146.71 1799.43,2146.67 1799.22,2135.52 1796.87,2135.56 1796.83,2133.93 1787.33,2134.12 1787.36,2135.27 1786.70,2135.28 1786.89,2149.56 1797.03,2149.38 1796.98,2146.71" type="building" />
    <poly color="255,230,230" fill="1" id="407350724" layer="-1.00" shape="1424.65,2307.79 1429.60,2307.76 1429.59,2306.46 1436.30,2306.41 1436.28,2303.58 1433.40,2303.60 1433.34,2297.15 1432.62,2297.16 1432.55,2288.24 1424.49,2288.30 1424.65,2307.79" type="building" />
    <poly color="255,230,230" fill="1" id="407350725" layer="-1.00" shape="1427.83,2143.07 1427.80,2141.65 1422.19,2141.78 1422.54,2157.68 1428.34,2157.55 1428.25,2154.00 1431.36,2153.93 1431.28,2150.45 1431.04,2150.45 1430.87,2143.00 1427.83,2143.07" type="building" />
    <poly color="255,230,230" fill="1" id="407350726" layer="-1.00" shape="1823.17,2281.78 1823.08,2277.80 1829.31,2277.65 1829.17,2271.76 1823.20,2271.90 1823.18,2271.47 1820.07,2271.55 1820.15,2275.11 1816.79,2275.20 1816.95,2281.94 1823.17,2281.78" type="building" />
    <poly color="255,230,230" fill="1" id="407350727" layer="-1.00" shape="1363.74,2396.19 1363.80,2399.05 1362.62,2399.06 1362.74,2405.50 1362.32,2405.52 1362.37,2408.58 1373.92,2408.37 1373.87,2405.90 1370.81,2405.97 1370.63,2396.05 1363.74,2396.19" type="building" />
    <poly color="255,230,230" fill="1" id="407350728" layer="-1.00" shape="1383.41,2092.39 1383.50,2107.29 1394.63,2107.22 1394.61,2103.89 1391.49,2103.91 1391.42,2092.26 1389.21,2092.26 1388.61,2091.48 1387.48,2091.53 1386.83,2092.37 1383.41,2092.39" type="building" />
    <poly color="255,230,230" fill="1" id="407350729" layer="-1.00" shape="1308.58,2287.13 1308.72,2294.27 1309.59,2294.26 1309.73,2301.32 1311.63,2301.28 1311.81,2310.11 1319.54,2309.96 1319.25,2295.33 1318.50,2295.34 1318.33,2286.94 1308.58,2287.13" type="building" />
    <poly color="255,230,230" fill="1" id="407350730" layer="-1.00" shape="1809.60,2137.33 1804.97,2137.37 1804.92,2134.12 1799.96,2134.18 1800.15,2146.68 1801.06,2146.64 1801.04,2149.12 1803.57,2149.15 1803.55,2150.15 1809.68,2150.07 1809.60,2137.33" type="building" />
    <poly color="255,230,230" fill="1" id="407350731" layer="-1.00" shape="1876.43,2348.41 1881.38,2348.36 1881.35,2346.48 1889.84,2346.38 1889.70,2334.59 1884.89,2334.64 1884.91,2336.70 1881.12,2336.75 1881.10,2334.70 1876.28,2334.75 1876.43,2348.41" type="building" />
    <poly color="255,230,230" fill="1" id="407350732" layer="-1.00" shape="1459.82,2388.24 1456.00,2388.28 1455.99,2387.75 1454.89,2387.75 1454.86,2384.55 1451.28,2384.58 1451.50,2407.64 1458.77,2407.56 1458.74,2405.63 1459.98,2405.63 1459.82,2388.24" type="building" />
    <poly color="255,230,230" fill="1" id="407350733" layer="-1.00" shape="1481.91,2368.39 1481.89,2365.99 1476.88,2366.02 1476.91,2368.39 1476.01,2368.39 1476.10,2373.68 1482.31,2373.65 1482.31,2373.17 1487.53,2373.14 1487.51,2368.36 1481.91,2368.39" type="building" />
    <poly color="255,230,230" fill="1" id="407350734" layer="-1.00" shape="1617.70,2090.57 1612.91,2090.61 1612.91,2089.84 1609.15,2089.86 1609.24,2104.65 1618.26,2104.58 1618.22,2098.18 1618.77,2097.49 1618.75,2096.34 1617.74,2095.61 1617.70,2090.57" type="building" />
    <poly color="255,230,230" fill="1" id="407350735" layer="-1.00" shape="1556.41,2166.34 1556.39,2160.13 1550.95,2160.15 1550.95,2160.87 1550.63,2160.86 1550.65,2165.80 1551.04,2165.79 1551.04,2167.13 1553.00,2167.13 1553.00,2166.35 1556.41,2166.34" type="building" />
    <poly color="255,230,230" fill="1" id="407350736" layer="-1.00" shape="1568.07,2238.54 1564.26,2238.60 1564.25,2237.93 1561.61,2237.97 1561.65,2240.00 1558.33,2240.04 1558.45,2249.26 1558.79,2249.26 1558.92,2258.80 1568.35,2258.66 1568.07,2238.54" type="building" />
    <poly color="255,230,230" fill="1" id="407350737" layer="-1.00" shape="1859.18,2396.86 1867.45,2396.74 1867.40,2393.13 1867.88,2393.13 1867.68,2380.91 1871.61,2380.85 1871.52,2375.51 1866.11,2375.59 1866.05,2371.74 1858.80,2371.84 1859.18,2396.86" type="building" />
    <poly color="255,230,230" fill="1" id="407350738" layer="-1.00" shape="1324.25,2402.54 1323.84,2402.54 1323.87,2409.61 1332.63,2409.56 1332.56,2395.50 1331.62,2395.50 1331.61,2392.81 1328.84,2392.82 1328.83,2390.49 1324.19,2390.52 1324.25,2402.54" type="building" />
    <poly color="255,230,230" fill="1" id="407350739" layer="-1.00" shape="1852.76,2258.61 1849.49,2258.68 1849.48,2258.11 1849.03,2258.12 1848.98,2255.29 1843.50,2255.40 1843.56,2258.31 1843.02,2258.32 1843.12,2264.97 1852.87,2264.80 1852.76,2258.61" type="building" />
    <poly color="255,230,230" fill="1" id="407350740" layer="-1.00" shape="1440.82,2284.80 1443.77,2284.73 1443.79,2285.09 1444.89,2285.07 1444.91,2285.72 1448.57,2285.63 1448.41,2278.99 1443.83,2279.10 1443.78,2276.82 1440.63,2276.91 1440.82,2284.80" type="building" />
    <poly color="255,230,230" fill="1" id="407350741" layer="-1.00" shape="1734.05,2337.57 1733.36,2337.57 1733.35,2335.74 1729.00,2335.77 1729.01,2336.67 1724.32,2336.71 1724.48,2355.67 1730.82,2355.62 1730.80,2353.28 1734.17,2353.25 1734.05,2337.57" type="building" />
    <poly color="255,230,230" fill="1" id="407350742" layer="-1.00" shape="1876.11,2098.13 1872.84,2098.20 1872.64,2087.31 1871.08,2087.34 1871.02,2084.39 1868.15,2084.44 1868.19,2086.89 1864.86,2086.95 1865.11,2100.95 1876.15,2100.74 1876.11,2098.13" type="building" />
    <poly color="255,230,230" fill="1" id="407350743" layer="-1.00" shape="1619.35,2137.65 1616.52,2137.68 1616.53,2139.20 1614.12,2139.21 1614.10,2137.77 1609.47,2137.80 1609.56,2149.26 1613.71,2149.23 1613.71,2148.52 1619.43,2148.47 1619.35,2137.65" type="building" />
    <poly color="255,230,230" fill="1" id="407350744" layer="-1.00" shape="1673.75,2101.40 1671.10,2101.42 1671.06,2095.31 1670.22,2095.30 1670.09,2087.83 1661.55,2087.88 1661.66,2096.99 1660.88,2097.01 1660.97,2103.68 1673.78,2103.59 1673.75,2101.40" type="building" />
    <poly color="255,230,230" fill="1" id="407350745" layer="-1.00" shape="1594.79,2079.10 1594.38,2079.11 1594.36,2076.45 1589.46,2076.48 1589.48,2082.69 1589.14,2082.69 1589.15,2084.33 1589.49,2084.32 1589.50,2085.88 1594.82,2085.85 1594.79,2079.10" type="building" />
    <poly color="255,230,230" fill="1" id="407350746" layer="-1.00" shape="1330.29,2142.13 1326.01,2142.13 1326.02,2140.51 1319.22,2140.52 1319.30,2145.82 1321.96,2145.82 1321.96,2158.12 1325.70,2158.11 1325.69,2162.35 1330.38,2162.30 1330.29,2142.13" type="building" />
    <poly color="255,230,230" fill="1" id="407350747" layer="-1.00" shape="1537.15,2352.35 1545.81,2352.21 1545.76,2348.42 1545.06,2348.43 1545.01,2345.13 1545.69,2345.12 1545.63,2341.14 1542.58,2341.18 1542.54,2339.30 1536.93,2339.39 1537.15,2352.35" type="building" />
    <poly color="255,230,230" fill="1" id="407350748" layer="-1.00" shape="1889.72,2134.87 1883.68,2134.94 1883.67,2133.75 1878.25,2133.81 1878.29,2137.25 1878.67,2137.25 1878.78,2146.72 1881.97,2146.68 1881.98,2147.31 1889.87,2147.22 1889.72,2134.87" type="building" />
    <poly color="255,230,230" fill="1" id="407350749" layer="-1.00" shape="1393.04,2141.99 1390.22,2141.97 1390.24,2142.67 1386.70,2142.77 1386.68,2141.78 1383.22,2141.87 1383.32,2147.94 1383.59,2147.94 1383.74,2157.01 1393.25,2156.81 1393.04,2141.99" type="building" />
    <poly color="255,230,230" fill="1" id="407350750" layer="-1.00" shape="1848.27,2089.81 1845.58,2089.84 1845.44,2079.68 1838.15,2079.79 1838.27,2089.90 1838.43,2089.89 1838.56,2099.26 1844.47,2099.17 1844.50,2101.54 1848.43,2101.48 1848.27,2089.81" type="building" />
    <poly color="255,230,230" fill="1" id="407350751" layer="-1.00" shape="1591.67,2141.71 1592.20,2141.71 1592.15,2137.90 1583.24,2138.05 1583.61,2161.54 1589.37,2161.45 1589.31,2157.74 1590.62,2157.71 1590.55,2153.45 1591.86,2153.42 1591.67,2141.71" type="building" />
    <poly color="255,230,230" fill="1" id="407350752" layer="-1.00" shape="1317.10,2092.80 1309.39,2092.97 1309.37,2092.32 1307.86,2092.35 1307.88,2093.00 1306.48,2093.03 1306.77,2106.33 1308.58,2106.30 1308.65,2109.64 1317.46,2109.44 1317.10,2092.80" type="building" />
    <poly color="255,230,230" fill="1" id="407350753" layer="-1.00" shape="1382.66,2344.38 1379.96,2344.43 1379.92,2341.42 1373.48,2341.52 1373.57,2348.01 1374.55,2348.00 1374.69,2357.83 1379.90,2357.76 1379.88,2356.32 1382.83,2356.27 1382.66,2344.38" type="building" />
    <poly color="255,230,230" fill="1" id="407350754" layer="-1.00" shape="1434.42,2106.88 1436.07,2106.88 1436.07,2107.30 1438.87,2107.28 1438.88,2106.96 1446.14,2106.91 1446.11,2102.00 1443.25,2102.02 1443.20,2093.04 1434.35,2093.09 1434.42,2106.88" type="building" />
    <poly color="255,230,230" fill="1" id="407350755" layer="-1.00" shape="1469.59,2252.98 1469.59,2246.87 1472.01,2246.87 1472.01,2239.96 1466.34,2239.95 1466.34,2239.19 1462.01,2239.19 1462.00,2241.75 1462.35,2241.75 1462.37,2252.99 1469.59,2252.98" type="building" />
    <poly color="255,230,230" fill="1" id="407350756" layer="-1.00" shape="1384.22,2392.12 1375.08,2392.29 1375.25,2401.44 1374.39,2401.46 1374.52,2408.14 1378.68,2408.06 1378.66,2406.91 1381.63,2406.85 1382.30,2407.48 1383.82,2407.52 1384.49,2407.01 1384.22,2392.12" type="building" />
    <poly color="255,230,230" fill="1" id="407350757" layer="-1.00" shape="1774.38,2340.39 1774.92,2340.38 1774.91,2338.89 1774.05,2338.30 1773.14,2338.03 1771.96,2338.31 1764.46,2338.24 1764.44,2340.68 1765.27,2340.69 1765.17,2352.35 1774.44,2352.43 1774.38,2340.39" type="building" />
    <poly color="255,230,230" fill="1" id="407350758" layer="-1.00" shape="1610.76,2048.85 1618.02,2048.70 1617.69,2033.42 1617.28,2033.43 1616.95,2032.82 1615.38,2032.82 1614.93,2033.48 1613.05,2033.52 1612.61,2032.86 1611.02,2032.85 1610.60,2033.57 1610.76,2048.85" type="building" />
    <poly color="255,230,230" fill="1" id="407350759" layer="-1.00" shape="1387.90,2401.98 1387.53,2401.98 1387.69,2408.13 1392.53,2408.00 1392.44,2404.51 1396.42,2404.41 1396.17,2394.38 1395.58,2393.90 1393.83,2393.89 1393.85,2392.21 1387.65,2392.15 1387.90,2401.98" type="building" />
    <poly color="255,230,230" fill="1" id="407350760" layer="-1.00" shape="1387.62,2366.09 1390.70,2366.05 1390.67,2364.59 1392.69,2362.48 1393.79,2362.48 1393.83,2356.65 1395.92,2356.67 1396.02,2342.79 1393.04,2342.77 1393.05,2341.34 1387.21,2341.31 1387.62,2366.09" type="building" />
    <poly color="255,230,230" fill="1" id="407350761" layer="-1.00" shape="1349.41,2409.21 1355.67,2409.08 1356.63,2407.88 1356.62,2406.85 1359.17,2406.80 1359.07,2400.25 1359.77,2400.24 1359.75,2398.62 1359.05,2398.63 1358.99,2394.05 1349.09,2394.19 1349.41,2409.21" type="building" />
    <poly color="255,230,230" fill="1" id="407350762" layer="-1.00" shape="1544.95,2203.61 1548.78,2203.58 1548.77,2202.75 1551.47,2202.74 1551.46,2202.27 1554.43,2202.26 1554.36,2189.09 1552.28,2184.96 1549.21,2185.03 1549.32,2190.00 1544.88,2190.09 1544.95,2203.61" type="building" />
    <poly color="255,230,230" fill="1" id="407350763" layer="-1.00" shape="1556.85,2105.09 1563.16,2105.05 1563.15,2104.23 1565.88,2104.20 1565.77,2091.14 1561.87,2091.18 1561.84,2086.88 1560.49,2086.88 1560.48,2085.98 1559.89,2085.99 1559.88,2083.66 1556.69,2083.68 1556.85,2105.09" type="building" />
    <poly color="255,230,230" fill="1" id="407350764" layer="-1.00" shape="1686.52,2158.07 1684.36,2158.12 1684.33,2157.02 1682.28,2157.08 1682.31,2158.04 1681.00,2158.07 1681.23,2166.78 1675.72,2166.93 1675.79,2169.72 1678.90,2169.63 1678.88,2169.34 1686.82,2169.13 1686.52,2158.07" type="building" />
    <poly color="255,230,230" fill="1" id="407350765" layer="-1.00" shape="1518.80,2189.06 1519.05,2204.23 1522.65,2204.17 1522.66,2205.22 1525.45,2205.18 1525.43,2203.59 1525.87,2204.10 1527.37,2204.05 1528.16,2203.40 1528.15,2202.14 1527.79,2202.14 1527.69,2188.91 1518.80,2189.06" type="building" />
    <poly color="255,230,230" fill="1" id="407350766" layer="-1.00" shape="1347.19,2309.46 1353.22,2309.37 1353.20,2307.55 1357.41,2307.49 1357.35,2302.84 1356.09,2302.86 1356.00,2296.09 1351.33,2296.15 1351.32,2295.20 1349.80,2295.22 1349.81,2296.18 1347.00,2296.22 1347.19,2309.46" type="building" />
    <poly color="255,230,230" fill="1" id="407350767" layer="-1.00" shape="1601.32,2392.90 1592.91,2392.96 1592.93,2395.07 1591.74,2395.09 1591.77,2400.01 1593.13,2400.01 1593.14,2401.68 1591.78,2401.69 1591.81,2406.06 1597.58,2406.02 1597.58,2404.25 1601.40,2404.23 1601.32,2392.90" type="building" />
    <poly color="255,230,230" fill="1" id="407350768" layer="-1.00" shape="1869.83,2246.26 1869.84,2234.39 1866.41,2234.38 1866.41,2232.89 1863.14,2232.88 1863.14,2233.67 1858.49,2233.68 1858.50,2239.17 1857.59,2239.17 1857.59,2242.51 1858.49,2242.52 1858.49,2246.26 1869.83,2246.26" type="building" />
    <poly color="255,230,230" fill="1" id="407350769" layer="-1.00" shape="1786.33,2295.84 1784.81,2295.88 1784.74,2292.93 1786.27,2292.89 1786.16,2289.09 1776.59,2289.35 1776.95,2302.69 1780.52,2302.60 1780.46,2300.46 1783.55,2300.38 1783.58,2301.74 1786.48,2301.67 1786.33,2295.84" type="building" />
    <poly color="255,230,230" fill="1" id="407350770" layer="-1.00" shape="1368.32,2196.66 1367.61,2196.67 1367.53,2191.38 1360.07,2191.50 1360.08,2191.95 1359.03,2191.99 1359.07,2198.24 1359.68,2198.21 1359.83,2208.05 1364.59,2207.98 1364.60,2208.80 1368.51,2208.74 1368.32,2196.66" type="building" />
    <poly color="255,230,230" fill="1" id="407350771" layer="-1.00" shape="1439.19,2401.38 1438.55,2401.40 1438.68,2407.71 1444.94,2407.59 1444.82,2402.51 1445.90,2402.48 1445.91,2403.24 1448.62,2403.18 1448.38,2391.41 1445.63,2391.46 1445.67,2393.23 1439.00,2393.34 1439.19,2401.38" type="building" />
    <poly color="255,230,230" fill="1" id="407350772" layer="-1.00" shape="1858.68,2349.59 1870.77,2349.36 1870.68,2344.36 1871.78,2344.34 1871.75,2342.97 1872.33,2342.95 1872.25,2339.17 1870.03,2339.21 1869.99,2337.27 1863.71,2337.38 1863.66,2334.78 1858.40,2334.88 1858.68,2349.59" type="building" />
    <poly color="255,230,230" fill="1" id="407350773" layer="-1.00" shape="1334.05,2186.60 1334.54,2208.27 1345.53,2208.02 1345.46,2204.66 1342.61,2204.73 1342.35,2193.26 1339.95,2193.31 1339.91,2191.79 1341.18,2191.76 1341.09,2188.16 1338.40,2188.22 1336.60,2186.54 1334.05,2186.60" type="building" />
    <poly color="255,230,230" fill="1" id="407350774" layer="-1.00" shape="1686.21,2054.37 1684.94,2054.40 1684.93,2053.46 1671.22,2053.70 1671.24,2054.53 1669.32,2054.57 1669.29,2053.47 1657.97,2053.67 1657.99,2054.69 1656.61,2054.72 1656.85,2068.54 1686.45,2068.03 1686.21,2054.37" type="building" />
    <poly color="255,230,230" fill="1" id="407350775" layer="-1.00" shape="1748.39,2386.00 1743.85,2386.03 1743.82,2382.36 1739.14,2382.41 1739.18,2386.00 1738.54,2386.01 1738.65,2398.39 1739.43,2398.38 1739.47,2403.21 1745.97,2403.15 1745.91,2396.54 1748.49,2396.51 1748.39,2386.00" type="building" />
    <poly color="255,230,230" fill="1" id="407350776" layer="-1.00" shape="1686.52,2096.57 1684.01,2096.59 1683.96,2091.24 1685.25,2091.23 1685.22,2087.49 1682.55,2087.51 1682.54,2086.77 1681.72,2086.77 1681.73,2087.71 1674.56,2087.77 1674.69,2103.55 1686.57,2103.45 1686.52,2096.57" type="building" />
    <poly color="255,230,230" fill="1" id="407350777" layer="-1.00" shape="1664.94,2289.01 1665.12,2297.17 1664.06,2297.20 1664.21,2303.93 1668.25,2303.83 1668.23,2303.03 1670.71,2302.98 1670.73,2303.88 1676.58,2303.75 1676.52,2301.35 1673.57,2301.42 1673.27,2288.83 1664.94,2289.01" type="building" />
    <poly color="255,230,230" fill="1" id="407350778" layer="-1.00" shape="1477.67,2399.79 1476.90,2399.80 1476.95,2406.59 1481.70,2406.55 1481.69,2405.94 1484.69,2405.91 1484.70,2406.53 1487.84,2406.50 1487.79,2399.34 1486.79,2399.34 1486.73,2390.10 1477.60,2390.17 1477.67,2399.79" type="building" />
    <poly color="255,230,230" fill="1" id="407350779" layer="-1.00" shape="1642.34,2033.65 1642.33,2032.95 1639.22,2033.00 1639.23,2033.74 1634.90,2033.80 1635.01,2040.95 1641.19,2040.85 1641.19,2041.57 1642.46,2041.55 1642.45,2040.69 1646.66,2040.63 1646.55,2033.59 1642.34,2033.65" type="building" />
    <poly color="255,230,230" fill="1" id="407350780" layer="-1.00" shape="1530.44,2392.07 1530.44,2391.08 1528.96,2391.09 1528.96,2392.07 1523.53,2392.09 1523.57,2405.26 1527.67,2405.25 1527.67,2403.79 1530.71,2403.78 1530.72,2405.25 1533.59,2405.24 1533.55,2392.05 1530.44,2392.07" type="building" />
    <poly color="255,230,230" fill="1" id="407350781" layer="-1.00" shape="1412.79,2360.51 1421.22,2360.21 1420.69,2345.32 1421.17,2345.31 1421.11,2343.56 1423.98,2343.45 1423.86,2340.24 1420.26,2340.37 1420.33,2342.63 1418.35,2342.70 1418.27,2340.45 1412.09,2340.68 1412.79,2360.51" type="building" />
    <poly color="255,230,230" fill="1" id="407350782" layer="-1.00" shape="1516.05,2154.58 1515.86,2139.24 1506.04,2139.36 1506.13,2146.91 1507.25,2146.90 1507.30,2151.04 1506.43,2151.05 1506.47,2154.71 1506.19,2154.71 1506.25,2159.52 1515.96,2159.40 1515.90,2154.59 1516.05,2154.58" type="building" />
    <poly color="255,230,230" fill="1" id="407350783" layer="-1.00" shape="1317.64,2155.87 1317.55,2151.77 1316.11,2151.82 1316.02,2147.85 1317.78,2147.81 1317.64,2141.95 1312.83,2142.05 1312.89,2144.84 1311.33,2144.87 1311.34,2145.34 1307.76,2145.42 1307.99,2156.08 1317.64,2155.87" type="building" />
    <poly color="255,230,230" fill="1" id="407350784" layer="-1.00" shape="1844.32,2300.55 1848.43,2300.52 1848.42,2298.71 1850.86,2298.70 1850.87,2300.36 1853.35,2300.35 1853.23,2284.00 1850.55,2284.01 1850.54,2282.71 1848.60,2282.72 1848.57,2279.21 1844.16,2279.24 1844.32,2300.55" type="building" />
    <poly color="255,230,230" fill="1" id="407350785" layer="-1.00" shape="1529.08,2238.89 1526.04,2238.88 1526.05,2240.45 1523.45,2240.44 1523.45,2238.71 1518.98,2238.69 1518.96,2244.98 1519.44,2244.97 1519.42,2254.12 1523.73,2254.13 1523.72,2252.50 1529.05,2252.51 1529.08,2238.89" type="building" />
    <poly color="255,230,230" fill="1" id="407350786" layer="-1.00" shape="1746.28,2290.43 1745.84,2290.44 1745.80,2283.54 1736.22,2283.60 1736.33,2302.24 1740.55,2302.22 1740.55,2301.05 1743.24,2301.04 1743.25,2302.27 1746.83,2302.25 1746.81,2298.78 1746.33,2298.77 1746.28,2290.43" type="building" />
    <poly color="255,230,230" fill="1" id="407350787" layer="-1.00" shape="1559.87,2339.62 1557.32,2339.66 1557.30,2338.65 1554.26,2338.68 1554.27,2339.12 1553.20,2339.13 1553.19,2338.50 1550.56,2338.53 1550.57,2339.22 1549.75,2339.22 1549.91,2352.18 1560.01,2352.08 1559.87,2339.62" type="building" />
    <poly color="255,230,230" fill="1" id="407350788" layer="-1.00" shape="1769.88,2086.45 1760.37,2086.69 1760.66,2097.65 1760.12,2097.67 1760.22,2101.48 1764.91,2101.36 1764.95,2102.92 1767.16,2102.86 1767.12,2101.43 1767.95,2101.97 1769.34,2101.87 1770.26,2100.99 1769.88,2086.45" type="building" />
    <poly color="255,230,230" fill="1" id="407350789" layer="-1.00" shape="1459.92,2347.03 1460.51,2347.03 1460.48,2340.38 1457.90,2340.39 1457.91,2341.86 1455.32,2341.87 1455.31,2340.21 1450.83,2340.22 1450.90,2360.12 1456.20,2360.10 1456.18,2353.89 1459.95,2353.88 1459.92,2347.03" type="building" />
    <poly color="255,230,230" fill="1" id="407350790" layer="-1.00" shape="1888.84,2090.15 1888.48,2090.16 1888.39,2081.90 1883.97,2081.94 1883.98,2083.39 1878.18,2083.45 1878.29,2094.28 1877.91,2094.28 1877.97,2100.55 1884.88,2100.48 1884.85,2096.41 1888.90,2096.37 1888.84,2090.15" type="building" />
    <poly color="255,230,230" fill="1" id="407350791" layer="-1.00" shape="1409.74,2193.76 1409.85,2206.76 1413.81,2206.73 1413.81,2206.99 1416.84,2206.96 1416.82,2205.49 1419.31,2205.47 1419.25,2198.85 1419.90,2198.84 1419.89,2197.62 1419.28,2197.61 1419.24,2193.67 1409.74,2193.76" type="building" />
    <poly color="255,230,230" fill="1" id="407350792" layer="-1.00" shape="1459.79,2091.08 1459.80,2106.21 1464.09,2106.21 1464.09,2105.59 1466.63,2105.58 1467.16,2106.28 1468.99,2106.23 1469.43,2105.55 1471.91,2105.55 1471.91,2102.54 1469.19,2102.54 1469.19,2091.07 1459.79,2091.08" type="building" />
    <poly color="255,230,230" fill="1" id="407350793" layer="-1.00" shape="1760.92,2337.90 1760.50,2337.91 1760.51,2336.32 1750.68,2336.27 1750.57,2360.23 1758.56,2360.26 1758.57,2358.70 1759.14,2358.71 1759.15,2355.95 1758.65,2355.94 1758.66,2353.18 1760.85,2353.20 1760.92,2337.90" type="building" />
    <poly color="255,230,230" fill="1" id="407350794" layer="-1.00" shape="1685.30,2304.02 1685.27,2302.29 1688.59,2302.24 1688.45,2293.16 1687.69,2293.18 1687.67,2292.16 1686.27,2292.18 1686.28,2293.01 1682.25,2293.06 1682.22,2290.96 1677.49,2291.04 1677.68,2304.13 1685.30,2304.02" type="building" />
    <poly color="255,230,230" fill="1" id="407350795" layer="-1.00" shape="1843.12,2267.87 1842.65,2267.87 1836.50,2267.98 1836.54,2271.92 1830.60,2271.96 1830.66,2277.98 1836.61,2277.94 1836.61,2277.45 1842.89,2277.40 1842.83,2271.16 1843.16,2271.16 1843.12,2267.87" type="building" />
    <poly color="255,230,230" fill="1" id="407350796" layer="-1.00" shape="1456.50,2090.48 1453.87,2090.50 1453.87,2089.62 1453.10,2089.63 1453.10,2090.57 1450.65,2090.59 1450.63,2087.16 1446.85,2087.19 1447.00,2106.79 1452.16,2106.76 1452.14,2103.31 1456.59,2103.28 1456.50,2090.48" type="building" />
    <poly color="255,230,230" fill="1" id="407350797" layer="-1.00" shape="1618.94,2250.61 1618.90,2248.58 1623.23,2248.47 1623.11,2243.51 1620.73,2243.56 1620.62,2239.15 1618.24,2239.21 1618.19,2237.11 1611.22,2237.28 1611.46,2247.11 1611.98,2247.09 1612.08,2250.77 1618.94,2250.61" type="building" />
    <poly color="255,230,230" fill="1" id="407350798" layer="-1.00" shape="1788.19,2191.06 1788.27,2201.21 1791.95,2201.19 1791.95,2201.61 1795.23,2201.59 1795.22,2201.17 1797.44,2201.15 1797.40,2195.42 1798.48,2195.41 1798.47,2193.79 1797.38,2193.79 1797.37,2190.99 1788.19,2191.06" type="building" />
    <poly color="255,230,230" fill="1" id="407350799" layer="-1.00" shape="1861.14,2142.99 1861.58,2142.98 1861.51,2137.25 1860.91,2137.26 1860.89,2135.80 1864.41,2135.76 1864.38,2133.53 1852.04,2133.68 1852.27,2151.97 1852.04,2151.98 1852.07,2155.05 1861.29,2154.93 1861.14,2142.99" type="building" />
    <poly color="255,230,230" fill="1" id="407350800" layer="-1.00" shape="1367.75,2247.13 1371.06,2247.07 1370.97,2242.66 1367.68,2242.73 1367.62,2239.87 1364.15,2239.95 1364.17,2240.61 1358.97,2240.72 1359.36,2258.82 1362.63,2258.74 1362.55,2254.84 1367.91,2254.73 1367.75,2247.13" type="building" />
    <poly color="255,230,230" fill="1" id="407350801" layer="-1.00" shape="1381.80,2248.94 1382.62,2248.93 1382.59,2246.87 1381.96,2246.88 1381.88,2240.41 1372.02,2240.54 1372.19,2253.06 1371.86,2253.07 1371.95,2259.21 1378.59,2259.12 1378.50,2252.68 1381.85,2252.63 1381.80,2248.94" type="building" />
    <poly color="255,230,230" fill="1" id="407350802" layer="-1.00" shape="1685.87,2203.21 1685.82,2197.17 1686.90,2197.17 1686.88,2193.56 1685.77,2193.57 1685.73,2189.13 1680.12,2189.17 1680.12,2190.85 1676.10,2190.87 1676.10,2190.33 1675.28,2190.34 1675.36,2203.29 1685.87,2203.21" type="building" />
    <poly color="255,230,230" fill="1" id="407350803" layer="-1.00" shape="1415.24,2156.38 1418.50,2156.35 1418.39,2146.27 1420.99,2146.23 1420.96,2143.38 1416.32,2143.43 1416.29,2141.70 1409.10,2141.78 1409.31,2161.88 1410.67,2161.86 1410.65,2160.98 1415.29,2160.93 1415.24,2156.38" type="building" />
    <poly color="255,230,230" fill="1" id="407350804" layer="-1.00" shape="1557.90,2204.76 1562.88,2204.71 1562.81,2199.13 1567.88,2199.08 1567.78,2189.45 1566.71,2189.47 1566.70,2188.50 1565.04,2188.51 1565.05,2189.59 1563.43,2189.60 1563.42,2187.94 1557.73,2187.99 1557.90,2204.76" type="building" />
    <poly color="255,230,230" fill="1" id="407350805" layer="-1.00" shape="1533.46,2305.88 1534.86,2305.86 1534.86,2306.22 1538.89,2306.17 1538.89,2305.67 1542.43,2305.62 1542.41,2303.86 1542.70,2303.85 1542.54,2291.57 1537.76,2291.63 1537.71,2287.43 1533.23,2287.48 1533.46,2305.88" type="building" />
    <poly color="255,230,230" fill="1" id="407350806" layer="-1.00" shape="1855.30,2233.17 1845.18,2233.28 1845.24,2239.29 1844.49,2239.30 1844.54,2244.36 1845.47,2244.36 1845.51,2248.60 1847.36,2248.59 1847.36,2249.06 1851.45,2249.02 1851.43,2247.36 1855.45,2247.31 1855.30,2233.17" type="building" />