<?xml version='1.0' encoding='UTF-8'?>
<additional xmlns:xsi="http://www.w3.org/2001/XMLSchema-instance" xsi:noNamespaceSchemaLocation="http://sumo.dlr.de/xsd/additional_file.xsd">
    <location convBoundary="-1393.39,-689.19,5170.08,3342.99" netOffset="-724093.06,-5030502.58" origBoundary="11.845441,45.385455,11.929688,45.422127" projParameter="+proj=utm +zone=32 +ellps=WGS84 +datum=WGS84 +units=m +no_defs" />

    <poly color="255,230,230" fill="1" id="101521983" layer="-1.00" shape="1470.22,2228.07 1490.86,2294.02 1495.23,2306.17 1505.64,2301.85 1518.03,2295.92 1502.55,2274.79 1489.10,2255.81 1474.89,2227.76 1470.22,2228.07" type="building" />
    <poly color="255,230,230" fill="1" id="103818853" layer="-1.00" shape="365.89,1070.95 366.80,1071.47 368.08,1071.65 369.09,1071.38 369.59,1071.09 370.32,1070.35 370.80,1069.19 370.81,1068.14 370.26,1066.86 369.50,1066.15 368.45,1065.71 367.40,1065.67 366.40,1065.99 365.89,1066.35 365.22,1067.15 364.86,1068.13 364.83,1068.88 365.09,1069.89 365.89,1070.95" type="building" />
    <poly color="255,230,230" fill="1" id="103818855" layer="-1.00" shape="372.57,1079.18 383.31,1078.63 383.02,1075.05 372.29,1075.40 372.57,1079.18" type="building" />
    <poly color="255,230,230" fill="1" id="103818856" layer="-1.00" shape="414.10,1111.15 415.04,1105.53 415.39,1095.69 438.20,1104.15 432.25,1117.87 414.10,1111.15" type="building" />
    <poly color="128,255,128" fill="1" id="103818857" layer="-1.00" shape="398.06,1104.92 398.41,1095.09 415.39,1095.69 415.04,1105.53 398.06,1104.92" type="historic" />
    <poly color="255,230,230" fill="1" id="105461758" layer="-1.00" shape="1352.05,1040.31 1382.48,1050.13 1391.13,1025.56 1362.87,1016.58 1361.89,1019.27 1358.56,1020.57 1352.05,1040.31" type="building" />
    <poly color="255,230,230" fill="1" id="105461760" layer="-1.00" shape="1365.26,994.64 1379.78,999.35 1385.93,983.24 1370.72,978.19 1365.26,994.64" type="building" />
    <poly color="255,230,230" fill="1" id="105461762" layer="-1.00" shape="1308.33,979.08 1342.80,990.86 1351.67,964.42 1316.94,952.76 1308.33,979.08" type="building" />
    <poly color="255,230,230" fill="1" id="105461763" layer="-1.00" shape="1419.84,1035.68 1430.05,1039.36 1440.24,1043.04 1434.78,1058.08 1429.31,1073.15 1419.02,1069.45 1408.91,1065.79 1414.40,1050.67 1419.84,1035.68" type="building" />
    <poly color="237,199,199" fill="1" id="107541981" layer="-1.00" shape="1252.65,2307.56 1252.73,2304.28 1251.82,2301.77 1249.69,2299.33 1246.53,2297.88 1243.03,2297.88 1240.76,2298.77 1238.62,2300.56 1237.27,2302.86 1236.77,2306.41 1237.56,2309.26 1239.23,2311.53 1240.93,2312.77 1242.95,2313.54 1246.30,2313.62 1249.47,2312.28 1251.61,2310.03 1252.65,2307.56" type="amenity" />
    <poly color="255,230,230" fill="1" id="107541988" layer="-1.00" shape="1222.53,2251.50 1227.84,2254.87 1229.34,2252.87 1231.53,2248.91 1229.53,2248.03 1225.07,2245.97 1222.53,2251.50" type="building" />
    <poly color="237,199,199" fill="1" id="107541993" layer="-1.00" shape="1229.35,2357.83 1226.81,2359.49 1224.14,2363.50 1223.77,2368.55 1225.89,2373.01 1229.96,2375.88 1234.70,2376.43 1238.34,2375.18 1240.26,2373.73 1242.20,2371.07 1243.19,2367.42 1242.31,2362.63 1239.90,2359.41 1235.60,2357.20 1231.60,2357.12 1229.35,2357.83" type="amenity" />
    <poly color="255,230,230" fill="1" id="112862617" layer="-1.00" shape="429.69,1124.90 410.12,1120.61 409.75,1124.09 411.95,1124.27 408.11,1143.41 412.70,1144.51 409.83,1157.29 417.83,1158.33 421.02,1158.74 429.69,1124.90" type="building" />
    <poly color="255,230,230" fill="1" id="112862618" layer="-1.00" shape="398.85,1111.66 398.06,1104.92 415.04,1105.53 414.10,1111.15 413.21,1115.42 410.69,1115.33 410.12,1120.61 409.75,1124.09 407.88,1123.70 408.60,1129.70 406.06,1129.84 402.57,1130.07 401.83,1121.28 398.73,1121.31 398.85,1111.66" type="building" />
    <poly color="255,230,230" fill="1" id="112862620" layer="-1.00" shape="432.25,1117.87 438.20,1104.15 515.07,1135.28 501.00,1170.18 495.20,1167.87 490.40,1178.39 497.62,1181.79 489.85,1199.74 412.41,1173.10 417.83,1158.33 421.02,1158.74 429.69,1124.90 432.25,1117.87" type="building" />
    <poly color="237,199,199" fill="1" id="117135860" layer="-1.00" shape="1425.75,2777.72 1427.31,2793.02 1482.54,2787.41 1480.98,2772.13 1476.73,2772.55 1431.52,2777.14 1428.08,2777.49 1425.75,2777.72" type="amenity" />
    <poly color="255,230,230" fill="1" id="122098935" layer="-1.00" shape="810.21,2362.82 807.53,2363.02 810.37,2387.68 841.55,2383.79 841.06,2376.87 837.17,2377.15 836.20,2367.48 834.35,2339.96 832.31,2322.72 805.85,2324.91 810.21,2362.82" type="building" />
    <poly color="255,230,230" fill="1" id="122098936" layer="-1.00" shape="848.52,2335.67 847.44,2321.80 832.31,2322.72 834.35,2339.96 837.87,2339.79 839.93,2367.29 836.20,2367.48 837.17,2377.15 841.06,2376.87 851.85,2375.88 851.49,2373.05 888.26,2370.39 887.45,2363.55 878.70,2364.39 876.75,2348.51 878.01,2348.56 880.23,2336.38 849.68,2329.73 848.52,2335.67" type="building" />
    <poly color="255,230,230" fill="1" id="122098986" layer="-1.00" shape="1277.67,1114.84 1275.78,1110.95 1271.65,1112.93 1273.54,1116.83 1277.67,1114.84" type="building" />
    <poly color="255,230,230" fill="1" id="122102091" layer="-1.00" shape="1149.02,2734.58 1145.45,2722.15 1132.78,2725.75 1136.34,2738.18 1139.06,2737.41 1147.44,2734.93 1149.02,2734.58" type="building" />
    <poly color="255,230,230" fill="1" id="122102092" layer="-1.00" shape="1147.44,2734.93 1149.02,2734.58 1152.98,2733.56 1155.45,2747.80 1155.74,2749.47 1157.23,2757.96 1157.07,2758.03 1155.42,2758.87 1153.01,2758.86 1151.28,2757.95 1148.29,2754.75 1144.77,2749.76 1142.79,2746.55 1140.80,2743.34 1139.26,2739.30 1139.06,2737.41 1147.44,2734.93" type="building" />
    <poly color="255,230,230" fill="1" id="122102094" layer="-1.00" shape="1155.42,2758.87 1154.52,2763.74 1154.64,2768.78 1157.36,2770.05 1156.78,2767.70 1156.72,2763.90 1157.07,2758.03 1155.42,2758.87" type="building" />
    <poly color="255,230,230" fill="1" id="122102096" layer="-1.00" shape="1171.77,2757.31 1169.47,2745.18 1155.45,2747.80 1155.74,2749.47 1157.23,2757.96 1157.72,2759.94 1171.77,2757.31" type="building" />
    <poly color="255,230,230" fill="1" id="127881969" layer="-1.00" shape="434.91,1119.85 424.80,1155.94 485.88,1175.72 497.21,1146.79 434.91,1119.85" type="building" />
    <poly color="255,230,230" fill="1" id="127881970" layer="-1.00" shape="814.02,2362.52 811.30,2339.46 828.90,2338.00 830.91,2361.21 814.02,2362.52" type="building" />
    <poly color="255,230,230" fill="1" id="127881971" layer="-1.00" shape="849.59,2335.89 853.84,2336.80 852.53,2341.25 869.00,2344.99 870.35,2359.91 851.60,2361.23 849.59,2335.89" type="building" />
    <poly color="255,230,230" fill="1" id="131796380" layer="-1.00" shape="2104.99,824.78 2104.24,826.20 2105.47,826.87 2106.34,825.47 2113.99,829.88 2117.23,823.95 2113.31,821.78 2112.81,822.59 2111.48,821.83 2107.68,819.65 2104.99,824.78" type="building" />
    <poly color="255,230,230" fill="1" id="131796588" layer="-1.00" shape="2030.13,728.09 2028.98,730.19 2031.16,731.70 2030.35,732.86 2037.22,737.18 2039.21,733.75 2040.68,731.90 2039.97,731.20 2042.12,727.62 2033.67,722.22 2030.13,728.09" type="building" />
    <poly color="255,230,230" fill="1" id="131796600" layer="-1.00" shape="2084.05,847.57 2088.99,839.75 2088.09,839.18 2090.09,836.02 2086.90,834.00 2085.36,836.44 2080.18,833.15 2076.01,839.73 2081.46,843.19 2080.23,845.14 2084.05,847.57" type="building" />
    <poly color="255,230,230" fill="1" id="131796674" layer="-1.00" shape="2025.41,729.84 2024.79,729.33 2022.83,732.51 2027.12,735.19 2028.94,732.00 2030.35,732.86 2031.16,731.70 2028.98,730.19 2030.13,728.09 2027.52,726.45 2025.41,729.84" type="building" />
    <poly color="255,230,230" fill="1" id="131796679" layer="-1.00" shape="2229.47,780.40 2240.24,787.27 2242.50,783.74 2243.28,784.23 2243.89,783.36 2244.46,782.40 2244.91,781.70 2244.10,781.19 2246.34,777.68 2235.59,770.83 2229.47,780.40" type="building" />
    <poly color="255,230,230" fill="1" id="131796951" layer="-1.00" shape="2142.47,836.12 2136.01,831.83 2132.69,836.84 2131.51,836.04 2127.85,841.57 2135.42,846.61 2137.15,844.01 2139.85,845.81 2141.66,843.08 2139.02,841.33 2142.47,836.12" type="building" />
    <poly color="255,230,230" fill="1" id="131797042" layer="-1.00" shape="1718.95,835.73 1728.20,836.02 1730.07,823.97 1706.25,820.66 1704.89,830.20 1707.98,830.60 1707.43,834.54 1703.23,840.42 1711.38,846.20 1716.25,839.47 1718.35,839.77 1718.95,835.73" type="building" />
    <poly color="255,230,230" fill="1" id="131797050" layer="-1.00" shape="867.38,771.15 867.95,774.20 866.14,774.61 867.53,781.55 876.88,779.26 880.09,778.02 879.35,775.14 876.36,776.06 874.72,769.66 874.65,768.97 867.38,771.15" type="building" />
    <poly color="255,230,230" fill="1" id="131797194" layer="-1.00" shape="1196.94,746.31 1191.76,787.66 1191.99,788.25 1197.01,788.95 1205.25,790.24 1210.19,750.25 1196.94,746.31" type="building" />
    <poly color="255,230,230" fill="1" id="131797430" layer="-1.00" shape="2098.79,790.49 2096.98,793.35 2098.59,794.43 2102.60,796.79 2104.39,793.96 2107.60,796.14 2113.31,786.86 2107.57,783.33 2106.58,784.84 2103.56,782.97 2098.79,790.49" type="building" />
    <poly color="255,230,230" fill="1" id="131797561" layer="-1.00" shape="1227.36,812.80 1231.12,778.68 1227.83,778.31 1216.37,777.06 1212.62,811.19 1227.36,812.80" type="building" />
    <poly color="255,230,230" fill="1" id="131797660" layer="-1.00" shape="1993.47,765.90 1993.75,766.78 1993.79,767.26 1991.30,771.20 1993.69,772.93 1995.47,774.22 1998.99,767.61 1997.76,766.78 2000.25,762.40 2000.92,761.68 1997.27,759.50 1993.47,765.90" type="building" />
    <poly color="255,230,230" fill="1" id="131797669" layer="-1.00" shape="2026.34,831.39 2025.05,830.58 2020.86,837.26 2022.10,838.06 2026.47,840.89 2032.10,844.43 2033.51,845.31 2036.76,840.14 2035.43,839.31 2036.41,837.74 2031.90,834.90 2026.34,831.39" type="building" />
    <poly color="255,230,230" fill="1" id="131797711" layer="-1.00" shape="2250.69,752.76 2248.77,755.65 2247.76,757.18 2245.47,755.66 2241.31,761.96 2243.62,763.50 2251.67,768.80 2254.67,764.32 2255.35,763.29 2261.52,753.90 2253.46,748.58 2250.69,752.76" type="building" />
    <poly color="255,230,230" fill="1" id="131797752" layer="-1.00" shape="1924.83,823.51 1923.54,825.51 1917.76,834.45 1929.21,841.85 1933.98,834.51 1930.42,832.20 1933.36,827.68 1936.88,829.95 1942.02,822.00 1938.60,819.79 1930.61,814.61 1924.83,823.51" type="building" />
    <poly color="255,230,230" fill="1" id="131797754" layer="-1.00" shape="2164.55,851.71 2164.17,852.23 2168.52,855.09 2170.42,852.19 2174.35,846.24 2176.67,842.69 2161.97,833.25 2161.37,834.15 2158.61,838.40 2153.68,835.15 2153.55,841.04 2155.94,842.60 2166.24,849.42 2164.55,851.71" type="building" />
    <poly color="255,230,230" fill="1" id="131797801" layer="-1.00" shape="1226.76,696.54 1227.30,698.53 1222.83,700.41 1222.21,699.32 1217.81,701.26 1220.35,706.58 1232.78,702.10 1239.47,701.28 1239.69,702.37 1242.81,701.94 1241.44,694.54 1226.76,696.54" type="building" />
    <poly color="255,230,230" fill="1" id="131797843" layer="-1.00" shape="2125.04,804.34 2126.69,801.72 2130.16,803.97 2133.54,806.15 2137.48,800.06 2134.47,798.11 2132.99,797.15 2131.60,799.30 2129.85,798.18 2122.31,793.29 2118.08,799.83 2125.04,804.34" type="building" />
    <poly color="255,230,230" fill="1" id="131797860" layer="-1.00" shape="1715.75,778.86 1715.34,784.65 1735.38,786.91 1736.49,776.34 1730.61,775.61 1730.77,774.02 1723.79,773.24 1723.84,771.84 1718.65,771.45 1718.15,775.90 1717.75,778.93 1715.75,778.86" type="building" />
    <poly color="237,199,199" fill="1" id="131797885" layer="-1.00" shape="1772.41,723.89 1768.29,726.83 1756.97,735.29 1766.23,747.95 1770.82,744.69 1787.17,732.49 1791.32,732.28 1790.61,726.07 1789.79,726.17 1782.53,716.43 1777.68,720.14 1772.41,723.89" type="amenity" />
    <poly color="255,230,230" fill="1" id="131797890" layer="-1.00" shape="1810.22,757.65 1808.86,759.93 1809.66,760.23 1807.61,763.41 1809.90,764.78 1811.54,768.56 1814.29,770.18 1821.52,758.90 1810.07,751.45 1808.65,753.43 1809.20,757.13 1810.22,757.65" type="building" />
    <poly color="255,230,230" fill="1" id="131797900" layer="-1.00" shape="1214.33,722.03 1221.80,728.99 1220.41,741.41 1235.33,743.28 1236.33,738.17 1232.50,737.56 1233.34,730.03 1248.02,724.73 1244.64,714.40 1229.12,719.72 1221.90,713.55 1214.33,722.03" type="building" />
    <poly color="255,230,230" fill="1" id="131797988" layer="-1.00" shape="1824.61,724.36 1830.48,727.79 1833.36,729.64 1835.42,726.44 1836.75,724.29 1837.33,724.79 1839.41,721.20 1839.59,720.94 1830.36,715.49 1821.02,709.78 1815.41,718.79 1824.61,724.36" type="building" />
    <poly color="255,230,230" fill="1" id="131798045" layer="-1.00" shape="2126.55,762.90 2124.05,766.71 2122.91,768.45 2124.53,769.54 2121.83,773.77 2125.59,776.19 2127.72,777.56 2132.44,770.15 2130.43,768.86 2131.99,766.54 2131.47,766.18 2126.55,762.90" type="building" />
    <poly color="255,230,230" fill="1" id="131798058" layer="-1.00" shape="1460.18,733.11 1461.23,740.11 1458.04,740.80 1461.06,746.61 1469.25,745.24 1468.58,741.55 1479.45,739.73 1477.85,729.95 1460.18,733.11" type="building" />
    <poly color="255,230,230" fill="1" id="131798098" layer="-1.00" shape="2068.79,727.78 2067.92,729.10 2065.58,732.77 2070.20,735.72 2071.43,736.51 2072.52,737.22 2074.62,738.56 2077.70,733.76 2073.53,731.09 2075.68,727.71 2070.82,724.61 2068.79,727.78" type="building" />
    <poly color="255,230,230" fill="1" id="131798111" layer="-1.00" shape="860.02,783.66 867.53,781.55 866.14,774.61 865.22,771.71 867.38,771.15 874.65,768.97 874.72,769.66 889.39,764.98 888.47,761.69 857.02,771.35 860.02,783.66" type="building" />
    <poly color="255,230,230" fill="1" id="131798133" layer="-1.00" shape="2168.69,749.79 2164.29,756.48 2165.22,757.11 2163.87,759.15 2161.07,763.41 2165.08,766.06 2164.57,766.83 2169.57,770.11 2178.10,757.15 2172.32,753.35 2173.76,751.15 2169.60,748.40 2168.69,749.79" type="building" />
    <poly color="255,230,230" fill="1" id="131798169" layer="-1.00" shape="1739.71,727.54 1739.06,728.08 1743.18,733.65 1743.48,733.45 1747.23,738.20 1754.26,732.85 1751.04,728.79 1748.00,724.70 1747.10,725.38 1746.41,724.28 1742.86,719.83 1737.00,724.26 1739.71,727.54" type="building" />
    <poly color="255,230,230" fill="1" id="131798195" layer="-1.00" shape="2270.56,800.22 2260.48,815.28 2263.35,817.22 2270.08,821.71 2276.57,812.01 2280.30,814.51 2281.19,813.15 2285.97,816.35 2292.14,807.13 2276.83,796.88 2275.34,799.11 2272.54,797.26 2270.56,800.22" type="building" />
    <poly color="255,230,230" fill="1" id="131798231" layer="-1.00" shape="2006.72,846.05 2009.74,848.01 2010.91,846.20 2015.24,839.50 2010.04,836.13 2008.40,838.65 2000.74,833.69 1998.74,836.72 1997.86,838.11 1995.22,842.24 2000.77,845.84 2002.85,847.19 2003.66,845.94 2004.52,844.63 2006.72,846.05" type="building" />
    <poly color="255,230,230" fill="1" id="131798275" layer="-1.00" shape="1776.77,785.48 1773.08,791.25 1778.36,794.97 1776.33,798.29 1781.42,801.49 1781.20,801.94 1779.51,804.70 1777.95,807.32 1787.31,813.38 1789.18,810.70 1790.79,808.05 1796.22,799.45 1776.77,785.48" type="building" />
    <poly color="255,230,230" fill="1" id="131798293" layer="-1.00" shape="1497.35,728.95 1495.71,722.37 1483.76,725.42 1485.62,732.99 1490.01,731.90 1491.63,738.39 1509.37,733.72 1507.40,726.04 1503.22,727.03 1503.34,727.54 1497.35,728.95" type="building" />
    <poly color="255,230,230" fill="1" id="131798312" layer="-1.00" shape="1935.07,746.13 1937.40,742.15 1946.64,748.06 1952.76,738.22 1951.34,737.15 1952.37,735.62 1947.58,732.75 1946.79,734.26 1943.63,732.33 1946.27,728.45 1940.50,724.69 1929.00,742.47 1935.07,746.13" type="building" />
    <poly color="255,230,230" fill="1" id="131798391" layer="-1.00" shape="2062.23,827.07 2060.46,829.78 2061.67,830.56 2064.90,832.64 2070.74,836.37 2078.02,825.29 2074.59,822.93 2076.07,819.80 2069.31,815.57 2065.18,821.83 2063.90,823.24 2061.02,825.78 2062.23,827.07" type="building" />
    <poly color="255,230,230" fill="1" id="131798392" layer="-1.00" shape="461.30,762.90 475.03,764.35 475.93,758.44 474.42,758.27 475.18,750.05 470.25,749.44 470.00,751.15 462.97,750.28 461.30,762.90" type="building" />
    <poly color="255,230,230" fill="1" id="131798468" layer="-1.00" shape="673.04,689.51 677.59,702.81 689.70,698.58 690.58,696.64 693.10,697.51 723.02,687.05 718.68,674.33 717.68,674.54 705.45,678.67 673.04,689.51" type="building" />
    <poly color="255,230,230" fill="1" id="131798515" layer="-1.00" shape="2137.08,811.97 2135.04,815.22 2138.49,817.39 2140.54,814.16 2145.85,817.51 2151.02,809.30 2147.17,806.88 2145.85,806.06 2144.84,807.64 2140.68,805.02 2137.60,809.90 2138.16,810.24 2137.08,811.97" type="building" />
    <poly color="255,230,230" fill="1" id="131798551" layer="-1.00" shape="263.46,698.03 262.21,697.96 262.48,696.15 262.47,695.45 253.04,694.43 252.61,698.34 253.73,698.52 252.86,705.54 262.78,706.75 263.93,698.12 263.46,698.03" type="building" />
    <poly color="255,230,230" fill="1" id="131798668" layer="-1.00" shape="1529.85,737.06 1531.72,746.04 1540.62,744.29 1541.53,749.54 1541.54,750.18 1535.96,751.40 1537.62,759.18 1554.51,756.04 1544.46,734.17 1529.85,737.06" type="building" />
    <poly color="255,230,230" fill="1" id="131798728" layer="-1.00" shape="895.87,753.32 896.56,755.54 895.85,755.65 894.79,753.60 891.56,754.33 886.95,755.69 886.87,756.04 888.05,760.57 888.47,761.69 889.39,764.98 911.32,758.68 907.81,749.19 895.87,753.32" type="building" />
    <poly color="255,230,230" fill="1" id="131798743" layer="-1.00" shape="1919.38,785.65 1916.34,790.68 1911.61,787.72 1910.82,788.83 1902.08,783.09 1899.15,781.18 1896.08,785.91 1900.82,789.05 1909.54,794.72 1914.11,797.71 1915.20,795.99 1919.83,798.75 1925.54,789.46 1919.38,785.65" type="building" />
    <poly color="255,230,230" fill="1" id="131798769" layer="-1.00" shape="2052.51,756.54 2052.08,756.27 2050.64,755.34 2048.04,759.36 2049.58,760.36 2049.93,760.58 2062.30,768.59 2065.57,770.70 2067.51,767.76 2068.26,766.46 2064.95,764.54 2067.29,760.56 2055.00,752.69 2052.51,756.54" type="building" />
    <poly color="255,230,230" fill="1" id="131798815" layer="-1.00" shape="453.02,769.57 453.41,785.17 465.62,785.35 465.68,783.53 471.79,783.62 471.77,777.53 470.68,777.54 470.60,773.55 461.50,773.51 461.32,769.32 453.02,769.57" type="building" />
    <poly color="255,230,230" fill="1" id="131798920" layer="-1.00" shape="246.10,735.32 256.43,736.58 259.50,713.21 248.96,711.90 247.83,720.83 246.43,720.36 245.62,725.38 247.21,725.45 246.10,735.32" type="building" />
    <poly color="255,230,230" fill="1" id="131798925" layer="-1.00" shape="1718.43,747.40 1711.48,747.45 1711.88,759.56 1723.21,759.50 1723.27,760.51 1726.87,760.44 1726.73,756.63 1723.72,756.61 1723.67,755.15 1723.67,750.19 1723.57,748.28 1723.47,747.38 1719.84,747.34 1718.43,747.40" type="building" />
    <poly color="255,230,230" fill="1" id="131798960" layer="-1.00" shape="427.77,747.44 429.07,729.43 417.56,728.49 417.19,734.28 415.89,734.20 415.98,732.50 402.87,731.58 401.77,745.19 416.05,746.41 416.06,746.81 427.77,747.44" type="building" />
    <poly color="255,230,230" fill="1" id="131799239" layer="-1.00" shape="611.75,686.33 613.27,691.08 617.22,689.80 619.07,695.58 625.34,693.77 627.61,693.26 619.85,666.41 611.33,668.89 614.44,679.85 615.43,679.54 616.82,684.81 611.75,686.33" type="building" />
    <poly color="255,230,230" fill="1" id="131799271" layer="-1.00" shape="310.59,705.67 306.46,705.15 303.69,722.70 311.19,724.07 311.39,722.76 315.80,723.38 318.05,709.23 310.22,707.98 310.59,705.67" type="building" />
    <poly color="255,230,230" fill="1" id="131799397" layer="-1.00" shape="343.46,670.12 342.21,679.36 353.54,680.77 354.15,676.15 358.41,672.24 364.58,666.46 378.66,665.11 378.26,659.61 379.05,659.49 378.37,652.88 359.68,654.85 343.46,670.12" type="building" />
    <poly color="255,230,230" fill="1" id="131799525" layer="-1.00" shape="515.83,719.69 513.95,705.22 511.75,705.06 510.27,695.48 492.78,695.80 489.24,699.37 488.53,704.09 504.06,706.10 506.34,709.66 505.61,719.28 507.35,721.14 515.83,719.69" type="building" />
    <poly color="255,230,230" fill="1" id="131799574" layer="-1.00" shape="278.18,728.48 283.74,729.05 286.32,728.23 291.07,727.21 290.89,728.74 293.20,728.80 293.81,724.39 292.41,724.18 293.42,713.19 279.78,712.04 278.18,728.48" type="building" />
    <poly color="255,230,230" fill="1" id="131799590" layer="-1.00" shape="476.66,753.15 475.93,758.44 475.03,764.35 474.85,765.27 480.07,765.68 480.83,758.45 483.64,758.51 483.68,761.10 486.78,761.23 486.86,754.53 482.54,753.93 476.66,753.15" type="building" />
    <poly color="255,230,230" fill="1" id="131799603" layer="-1.00" shape="284.82,770.93 283.61,770.73 284.47,763.72 285.53,763.85 286.64,754.89 277.53,753.75 274.55,778.98 283.77,780.03 284.82,770.93" type="building" />
    <poly color="255,230,230" fill="1" id="131799620" layer="-1.00" shape="1975.01,811.91 1974.16,811.35 1971.44,815.59 1973.89,817.16 1978.17,819.90 1976.15,823.04 1980.29,825.68 1982.29,822.53 1984.95,818.39 1986.36,816.19 1989.19,811.72 1986.35,809.91 1987.43,808.24 1986.42,807.56 1984.49,806.31 1980.27,803.68 1975.01,811.91" type="building" />
    <poly color="255,230,230" fill="1" id="131799757" layer="-1.00" shape="1963.74,790.97 1962.59,792.76 1956.95,801.50 1954.93,804.65 1964.60,810.90 1962.49,814.19 1965.43,816.08 1968.51,811.37 1965.50,809.54 1967.00,807.26 1968.11,807.86 1969.24,806.08 1968.22,805.41 1972.86,798.20 1968.61,795.44 1966.93,794.38 1967.54,793.42 1963.74,790.97" type="building" />
    <poly color="255,230,230" fill="1" id="131799774" layer="-1.00" shape="1967.65,823.15 1965.83,821.99 1964.00,824.86 1965.79,825.99 1967.52,827.09 1965.29,830.64 1962.77,834.58 1961.13,833.53 1959.48,836.17 1959.09,837.12 1964.84,840.49 1969.11,843.19 1969.87,842.06 1971.08,840.14 1973.76,835.86 1976.59,831.40 1977.75,829.56 1967.65,823.15" type="building" />
    <poly color="255,230,230" fill="1" id="131799790" layer="-1.00" shape="1854.13,768.56 1853.15,770.11 1856.83,772.45 1860.84,774.99 1862.59,776.11 1866.94,769.26 1867.67,768.11 1875.75,773.24 1881.25,764.58 1871.68,758.51 1871.09,759.44 1868.60,763.38 1864.34,760.68 1863.45,762.09 1858.68,759.07 1855.61,763.90 1856.66,764.63 1854.13,768.56" type="building" />
    <poly color="255,230,230" fill="1" id="131799793" layer="-1.00" shape="372.15,741.94 372.82,744.03 369.56,744.59 368.43,744.96 372.01,762.04 388.26,758.76 384.61,741.87 383.95,741.88 379.91,742.80 379.41,740.37 372.15,741.94" type="building" />
    <poly color="255,230,230" fill="1" id="131799855" layer="-1.00" shape="1151.42,792.02 1150.76,799.44 1149.21,807.31 1170.73,811.11 1181.67,812.69 1189.37,813.80 1190.28,807.91 1175.02,806.21 1174.76,807.44 1170.24,806.93 1171.07,798.69 1174.68,799.02 1174.93,796.51 1172.51,796.15 1172.79,794.45 1151.42,792.02" type="building" />
    <poly color="255,230,230" fill="1" id="131799930" layer="-1.00" shape="2002.73,773.04 2003.97,770.91 2002.57,769.86 2001.43,769.19 1998.99,767.61 1995.47,774.22 1998.69,775.76 1993.25,784.09 1997.27,786.47 1999.43,787.78 2000.12,788.19 2001.13,786.78 2003.98,788.62 2010.79,777.93 2012.16,775.88 2009.99,774.72 2006.85,772.66 2005.63,774.76 2002.73,773.04" type="building" />
    <poly color="255,230,230" fill="1" id="131799934" layer="-1.00" shape="2000.62,734.34 2000.02,734.05 1998.28,737.04 1999.68,737.86 1995.94,743.82 1994.24,742.60 1993.04,744.51 1991.07,747.47 1989.65,749.84 1986.28,747.77 1984.43,751.02 1990.39,754.92 1993.83,749.19 2001.20,753.68 2009.76,740.06 2005.50,737.38 2007.73,733.85 2002.85,730.69 2000.62,734.34" type="building" />
    <poly color="255,230,230" fill="1" id="131800001" layer="-1.00" shape="2006.23,822.86 2005.65,823.74 2003.61,827.04 2005.12,827.98 2007.15,829.27 2006.87,829.72 2010.17,831.80 2009.68,832.61 2011.59,833.82 2012.08,832.94 2014.65,834.77 2015.04,834.15 2016.81,835.26 2018.34,832.83 2016.66,831.79 2019.47,827.31 2020.17,826.17 2017.48,824.47 2008.69,818.95 2006.23,822.86" type="building" />
    <poly color="255,230,230" fill="1" id="131800015" layer="-1.00" shape="1451.99,753.46 1453.09,762.49 1460.65,760.68 1462.31,768.42 1454.51,769.97 1455.95,777.66 1457.30,777.73 1527.38,763.83 1524.16,747.54 1531.72,746.04 1529.85,737.06 1483.10,746.86 1482.75,744.88 1476.67,746.09 1476.92,748.39 1451.99,753.46" type="building" />
    <poly color="255,230,230" fill="1" id="131800218" layer="-1.00" shape="1868.80,739.48 1868.18,740.49 1867.29,739.94 1865.49,742.78 1866.41,743.35 1865.91,744.13 1874.08,749.29 1873.23,750.61 1872.50,751.76 1871.82,752.86 1875.40,755.14 1877.50,756.46 1880.98,758.66 1885.25,751.93 1883.13,750.60 1881.75,749.71 1879.66,748.40 1882.09,744.78 1880.90,744.01 1883.40,740.10 1873.79,734.02 1869.90,740.18 1868.80,739.48" type="building" />
    <poly color="255,230,230" fill="1" id="131800330" layer="-1.00" shape="1299.99,737.63 1301.04,753.78 1295.86,754.12 1295.73,752.29 1273.36,753.74 1272.52,740.81 1273.67,738.99 1272.95,727.89 1271.32,726.62 1259.93,727.55 1258.55,729.18 1259.19,740.57 1260.82,741.46 1261.14,746.34 1263.01,746.21 1263.54,754.46 1261.04,754.62 1261.93,768.41 1272.16,767.75 1272.01,765.37 1328.34,761.75 1327.71,752.01 1326.64,752.09 1325.59,735.97 1299.99,737.63" type="building" />
    <poly color="255,230,230" fill="1" id="131800357" layer="-1.00" shape="1568.59,734.37 1569.23,736.01 1567.89,736.76 1570.93,743.58 1569.65,744.28 1573.50,752.33 1574.84,751.65 1576.03,754.59 1574.74,755.22 1578.48,762.99 1579.94,762.35 1583.19,769.19 1584.83,768.45 1585.47,769.87 1593.33,766.18 1592.58,764.64 1594.12,763.79 1591.51,758.39 1589.98,759.13 1580.17,737.92 1581.40,737.27 1578.90,731.72 1577.08,732.28 1576.53,730.86 1568.59,734.37" type="building" />
    <poly color="255,230,230" fill="1" id="131800410" layer="-1.00" shape="471.86,688.42 471.63,689.09 470.44,688.91 469.82,693.13 480.25,694.54 480.78,690.43 482.06,690.61 482.58,685.69 481.39,685.60 481.82,681.89 471.48,680.49 471.05,684.20 472.35,684.29 471.86,688.42" type="building" />
    <poly color="255,230,230" fill="1" id="131800419" layer="-1.00" shape="2221.42,790.55 2220.40,789.86 2217.76,794.00 2218.82,794.66 2222.80,797.15 2219.15,802.60 2214.24,810.05 2210.99,815.08 2206.71,812.16 2205.65,811.44 2202.89,815.69 2203.90,816.36 2201.93,819.50 2209.50,824.51 2210.70,825.28 2212.67,822.46 2211.35,821.58 2212.10,820.54 2212.96,819.38 2213.62,818.47 2217.06,820.63 2230.14,800.97 2226.71,798.61 2227.17,797.88 2227.85,796.85 2230.71,792.43 2231.33,791.44 2227.10,788.60 2226.41,789.61 2223.39,787.54 2221.42,790.55" type="building" />
    <poly color="255,230,230" fill="1" id="131800432" layer="-1.00" shape="1593.06,773.89 1591.50,774.65 1588.54,775.90 1589.27,777.54 1587.45,778.27 1590.55,785.36 1589.36,785.98 1593.33,793.95 1594.68,793.46 1595.68,796.01 1594.47,796.54 1598.18,804.32 1599.41,803.58 1602.77,810.60 1604.38,809.86 1605.31,811.81 1608.25,810.62 1609.83,809.80 1613.25,808.20 1612.43,806.18 1613.86,805.33 1611.28,799.61 1609.65,800.26 1605.88,792.06 1603.61,787.20 1599.74,779.13 1601.25,778.59 1599.90,775.61 1598.56,773.14 1596.73,773.91 1596.09,772.48 1593.06,773.89" type="building" />
    <poly color="255,230,230" fill="1" id="131800446" layer="-1.00" shape="1846.61,791.79 1845.72,791.86 1844.33,792.79 1844.04,793.08 1843.13,794.25 1842.65,795.11 1841.96,796.61 1841.86,797.01 1841.86,798.33 1842.17,798.87 1842.60,799.51 1841.03,802.02 1845.86,805.18 1844.79,806.99 1846.62,808.13 1855.16,813.47 1858.79,807.73 1851.13,802.72 1852.13,802.29 1853.33,801.40 1854.20,800.13 1854.41,799.68 1854.93,797.92 1854.98,797.46 1857.33,793.54 1854.20,791.60 1854.70,790.77 1854.29,789.46 1852.58,788.19 1851.18,788.31 1850.65,789.38 1849.28,788.53 1847.22,791.76 1846.61,791.79" type="building" />
    <poly color="255,230,230" fill="1" id="131800555" layer="-1.00" shape="332.30,761.85 332.30,764.05 334.80,764.14 334.84,768.45 339.94,768.43 340.01,764.12 343.61,764.10 343.73,769.10 349.35,768.98 349.21,764.18 350.78,764.10 350.76,753.65 350.44,750.55 332.53,750.36 332.30,761.85" type="building" />
    <poly color="255,230,230" fill="1" id="131800562" layer="-1.00" shape="1950.20,805.88 1952.89,801.36 1948.15,798.54 1945.45,803.05 1950.20,805.88" type="building" />
    <poly color="255,230,230" fill="1" id="131800617" layer="-1.00" shape="1550.52,806.86 1548.41,796.70 1538.50,798.80 1540.54,808.86 1550.52,806.86" type="building" />
    <poly color="255,230,230" fill="1" id="131800668" layer="-1.00" shape="504.92,757.73 503.97,754.93 499.11,756.51 503.25,770.14 507.93,768.66 508.57,770.94 520.89,766.79 520.63,764.70 525.48,764.18 523.84,752.86 514.36,753.83 514.70,756.68 514.86,759.33 505.68,760.39 504.92,757.73" type="building" />
    <poly color="255,230,230" fill="1" id="131800721" layer="-1.00" shape="1948.83,796.52 1940.76,791.13 1939.22,793.45 1947.29,798.83 1948.83,796.52" type="building" />
    <poly color="255,230,230" fill="1" id="131800829" layer="-1.00" shape="1608.34,759.13 1610.56,758.15 1608.19,752.34 1605.85,753.36 1608.34,759.13" type="building" />
    <poly color="255,230,230" fill="1" id="131800874" layer="-1.00" shape="386.98,658.24 387.43,663.54 388.83,663.51 389.30,667.30 391.40,667.06 392.39,677.45 397.88,676.95 398.00,677.53 403.50,676.84 402.40,666.97 405.30,666.60 404.71,661.91 403.01,662.04 402.62,657.25 399.43,657.72 399.12,657.02 386.98,658.24" type="building" />
    <poly color="255,230,230" fill="1" id="131800931" layer="-1.00" shape="2063.33,791.83 2061.40,794.93 2065.70,797.74 2067.69,794.69 2063.33,791.83" type="building" />
    <poly color="255,230,230" fill="1" id="131800936" layer="-1.00" shape="652.79,697.95 652.45,696.66 647.97,698.19 652.36,711.46 677.59,702.81 673.04,689.51 671.97,686.05 667.77,687.31 669.29,692.25 652.79,697.95" type="building" />