<?xml version="1.0" encoding="UTF-8"?>

<additional xmlns:xsi="http://www.w3.org/2001/XMLSchema-instance" xsi:noNamespaceSchemaLocation="http://sumo.dlr.de/xsd/additional_file.xsd">

	<poly id="b1" type="building.yes" color="0,0,255" fill="1" shape="150.0,150.0 200.0,150.0 200.0,200.0 150.0,200.0"/>
</additional>
