<?xml version="1.0" encoding="UTF-8"?>

<additional xmlns:xsi="http://www.w3.org/2001/XMLSchema-instance" xsi:noNamespaceSchemaLocation="http://sumo.dlr.de/xsd/additional_file.xsd">
	<poly id="b0" type="building.apartments" color="0,0,255" fill="1" layer="-1.00" shape="5,5 295,5 295,295 5,295"/>
	<poly id="b1" type="building.apartments" color="0,0,255" fill="1" layer="-1.00" shape="305,5 595,5 595,295 305,295"/>
	<poly id="b2" type="building.apartments" color="0,0,255" fill="1" layer="-1.00" shape="605,5 895,5 895,295 605,295"/>
	<poly id="b3" type="building.apartments" color="0,0,255" fill="1" layer="-1.00" shape="905,5 1195,5 1195,295 905,295"/>
	<poly id="b4" type="building.apartments" color="0,0,255" fill="1" layer="-1.00" shape="1205,5 1495,5 1495,295 1205,295"/>
	<poly id="b5" type="building.apartments" color="0,0,255" fill="1" layer="-1.00" shape="1505,5 1795,5 1795,295 1505,295"/>
	<poly id="b6" type="building.apartments" color="0,0,255" fill="1" layer="-1.00" shape="1805,5 2095,5 2095,295 1805,295"/>
	<poly id="b7" type="building.apartments" color="0,0,255" fill="1" layer="-1.00" shape="2105,5 2395,5 2395,295 2105,295"/>
	<poly id="b8" type="building.apartments" color="0,0,255" fill="1" layer="-1.00" shape="2405,5 2695,5 2695,295 2405,295"/>
	<poly id="b9" type="building.apartments" color="0,0,255" fill="1" layer="-1.00" shape="2705,5 2995,5 2995,295 2705,295"/>
	<poly id="b10" type="building.apartments" color="0,0,255" fill="1" layer="-1.00" shape="3005,5 3295,5 3295,295 3005,295"/>
	<poly id="b11" type="building.apartments" color="0,0,255" fill="1" layer="-1.00" shape="3305,5 3595,5 3595,295 3305,295"/>
	<poly id="b12" type="building.apartments" color="0,0,255" fill="1" layer="-1.00" shape="3605,5 3895,5 3895,295 3605,295"/>
	<poly id="b13" type="building.apartments" color="0,0,255" fill="1" layer="-1.00" shape="5,305 295,305 295,595 5,595"/>
	<poly id="b14" type="building.apartments" color="0,0,255" fill="1" layer="-1.00" shape="305,305 595,305 595,595 305,595"/>
	<poly id="b15" type="building.apartments" color="0,0,255" fill="1" layer="-1.00" shape="605,305 895,305 895,595 605,595"/>
	<poly id="b16" type="building.apartments" color="0,0,255" fill="1" layer="-1.00" shape="905,305 1195,305 1195,595 905,595"/>
	<poly id="b17" type="building.apartments" color="0,0,255" fill="1" layer="-1.00" shape="1205,305 1495,305 1495,595 1205,595"/>
	<poly id="b18" type="building.apartments" color="0,0,255" fill="1" layer="-1.00" shape="1505,305 1795,305 1795,595 1505,595"/>
	<poly id="b19" type="building.apartments" color="0,0,255" fill="1" layer="-1.00" shape="1805,305 2095,305 2095,595 1805,595"/>
	<poly id="b20" type="building.apartments" color="0,0,255" fill="1" layer="-1.00" shape="2105,305 2395,305 2395,595 2105,595"/>
	<poly id="b21" type="building.apartments" color="0,0,255" fill="1" layer="-1.00" shape="2405,305 2695,305 2695,595 2405,595"/>
	<poly id="b22" type="building.apartments" color="0,0,255" fill="1" layer="-1.00" shape="2705,305 2995,305 2995,595 2705,595"/>
	<poly id="b23" type="building.apartments" color="0,0,255" fill="1" layer="-1.00" shape="3005,305 3295,305 3295,595 3005,595"/>
	<poly id="b24" type="building.apartments" color="0,0,255" fill="1" layer="-1.00" shape="3305,305 3595,305 3595,595 3305,595"/>
	<poly id="b25" type="building.apartments" color="0,0,255" fill="1" layer="-1.00" shape="3605,305 3895,305 3895,595 3605,595"/>
	<poly id="b26" type="building.apartments" color="0,0,255" fill="1" layer="-1.00" shape="5,605 295,605 295,895 5,895"/>
	<poly id="b27" type="building.apartments" color="0,0,255" fill="1" layer="-1.00" shape="305,605 595,605 595,895 305,895"/>
	<poly id="b28" type="building.apartments" color="0,0,255" fill="1" layer="-1.00" shape="605,605 895,605 895,895 605,895"/>
	<poly id="b29" type="building.apartments" color="0,0,255" fill="1" layer="-1.00" shape="905,605 1195,605 1195,895 905,895"/>
	<poly id="b30" type="building.apartments" color="0,0,255" fill="1" layer="-1.00" shape="1205,605 1495,605 1495,895 1205,895"/>
	<poly id="b31" type="building.apartments" color="0,0,255" fill="1" layer="-1.00" shape="1505,605 1795,605 1795,895 1505,895"/>
	<poly id="b32" type="building.apartments" color="0,0,255" fill="1" layer="-1.00" shape="1805,605 2095,605 2095,895 1805,895"/>
	<poly id="b33" type="building.apartments" color="0,0,255" fill="1" layer="-1.00" shape="2105,605 2395,605 2395,895 2105,895"/>
	<poly id="b34" type="building.apartments" color="0,0,255" fill="1" layer="-1.00" shape="2405,605 2695,605 2695,895 2405,895"/>
	<poly id="b35" type="building.apartments" color="0,0,255" fill="1" layer="-1.00" shape="2705,605 2995,605 2995,895 2705,895"/>
	<poly id="b36" type="building.apartments" color="0,0,255" fill="1" layer="-1.00" shape="3005,605 3295,605 3295,895 3005,895"/>
	<poly id="b37" type="building.apartments" color="0,0,255" fill="1" layer="-1.00" shape="3305,605 3595,605 3595,895 3305,895"/>
	<poly id="b38" type="building.apartments" color="0,0,255" fill="1" layer="-1.00" shape="3605,605 3895,605 3895,895 3605,895"/>
	<poly id="b39" type="building.apartments" color="0,0,255" fill="1" layer="-1.00" shape="5,905 295,905 295,1195 5,1195"/>
	<poly id="b40" type="building.apartments" color="0,0,255" fill="1" layer="-1.00" shape="305,905 595,905 595,1195 305,1195"/>
	<poly id="b41" type="building.apartments" color="0,0,255" fill="1" layer="-1.00" shape="605,905 895,905 895,1195 605,1195"/>
	<poly id="b42" type="building.apartments" color="0,0,255" fill="1" layer="-1.00" shape="905,905 1195,905 1195,1195 905,1195"/>
	<poly id="b43" type="building.apartments" color="0,0,255" fill="1" layer="-1.00" shape="1205,905 1495,905 1495,1195 1205,1195"/>
	<poly id="b44" type="building.apartments" color="0,0,255" fill="1" layer="-1.00" shape="1505,905 1795,905 1795,1195 1505,1195"/>
	<poly id="b45" type="building.apartments" color="0,0,255" fill="1" layer="-1.00" shape="1805,905 2095,905 2095,1195 1805,1195"/>
	<poly id="b46" type="building.apartments" color="0,0,255" fill="1" layer="-1.00" shape="2105,905 2395,905 2395,1195 2105,1195"/>
	<poly id="b47" type="building.apartments" color="0,0,255" fill="1" layer="-1.00" shape="2405,905 2695,905 2695,1195 2405,1195"/>
	<poly id="b48" type="building.apartments" color="0,0,255" fill="1" layer="-1.00" shape="2705,905 2995,905 2995,1195 2705,1195"/>
	<poly id="b49" type="building.apartments" color="0,0,255" fill="1" layer="-1.00" shape="3005,905 3295,905 3295,1195 3005,1195"/>
	<poly id="b50" type="building.apartments" color="0,0,255" fill="1" layer="-1.00" shape="3305,905 3595,905 3595,1195 3305,1195"/>
	<poly id="b51" type="building.apartments" color="0,0,255" fill="1" layer="-1.00" shape="3605,905 3895,905 3895,1195 3605,1195"/>
	<poly id="b52" type="building.apartments" color="0,0,255" fill="1" layer="-1.00" shape="5,1205 295,1205 295,1495 5,1495"/>
	<poly id="b53" type="building.apartments" color="0,0,255" fill="1" layer="-1.00" shape="305,1205 595,1205 595,1495 305,1495"/>
	<poly id="b54" type="building.apartments" color="0,0,255" fill="1" layer="-1.00" shape="605,1205 895,1205 895,1495 605,1495"/>
	<poly id="b55" type="building.apartments" color="0,0,255" fill="1" layer="-1.00" shape="905,1205 1195,1205 1195,1495 905,1495"/>
	<poly id="b56" type="building.apartments" color="0,0,255" fill="1" layer="-1.00" shape="1205,1205 1495,1205 1495,1495 1205,1495"/>
	<poly id="b57" type="building.apartments" color="0,0,255" fill="1" layer="-1.00" shape="1505,1205 1795,1205 1795,1495 1505,1495"/>
	<poly id="b58" type="building.apartments" color="0,0,255" fill="1" layer="-1.00" shape="1805,1205 2095,1205 2095,1495 1805,1495"/>
	<poly id="b59" type="building.apartments" color="0,0,255" fill="1" layer="-1.00" shape="2105,1205 2395,1205 2395,1495 2105,1495"/>
	<poly id="b60" type="building.apartments" color="0,0,255" fill="1" layer="-1.00" shape="2405,1205 2695,1205 2695,1495 2405,1495"/>
	<poly id="b61" type="building.apartments" color="0,0,255" fill="1" layer="-1.00" shape="2705,1205 2995,1205 2995,1495 2705,1495"/>
	<poly id="b62" type="building.apartments" color="0,0,255" fill="1" layer="-1.00" shape="3005,1205 3295,1205 3295,1495 3005,1495"/>
	<poly id="b63" type="building.apartments" color="0,0,255" fill="1" layer="-1.00" shape="3305,1205 3595,1205 3595,1495 3305,1495"/>
	<poly id="b64" type="building.apartments" color="0,0,255" fill="1" layer="-1.00" shape="3605,1205 3895,1205 3895,1495 3605,1495"/>
	<poly id="b65" type="building.apartments" color="0,0,255" fill="1" layer="-1.00" shape="5,1505 295,1505 295,1795 5,1795"/>
	<poly id="b66" type="building.apartments" color="0,0,255" fill="1" layer="-1.00" shape="305,1505 595,1505 595,1795 305,1795"/>
	<poly id="b67" type="building.apartments" color="0,0,255" fill="1" layer="-1.00" shape="605,1505 895,1505 895,1795 605,1795"/>
	<poly id="b68" type="building.apartments" color="0,0,255" fill="1" layer="-1.00" shape="905,1505 1195,1505 1195,1795 905,1795"/>
	<poly id="b69" type="building.apartments" color="0,0,255" fill="1" layer="-1.00" shape="1205,1505 1495,1505 1495,1795 1205,1795"/>
	<poly id="b70" type="building.apartments" color="0,0,255" fill="1" layer="-1.00" shape="1505,1505 1795,1505 1795,1795 1505,1795"/>
	<poly id="b71" type="building.apartments" color="0,0,255" fill="1" layer="-1.00" shape="1805,1505 2095,1505 2095,1795 1805,1795"/>
	<poly id="b72" type="building.apartments" color="0,0,255" fill="1" layer="-1.00" shape="2105,1505 2395,1505 2395,1795 2105,1795"/>
	<poly id="b73" type="building.apartments" color="0,0,255" fill="1" layer="-1.00" shape="2405,1505 2695,1505 2695,1795 2405,1795"/>
	<poly id="b74" type="building.apartments" color="0,0,255" fill="1" layer="-1.00" shape="2705,1505 2995,1505 2995,1795 2705,1795"/>
	<poly id="b75" type="building.apartments" color="0,0,255" fill="1" layer="-1.00" shape="3005,1505 3295,1505 3295,1795 3005,1795"/>
	<poly id="b76" type="building.apartments" color="0,0,255" fill="1" layer="-1.00" shape="3305,1505 3595,1505 3595,1795 3305,1795"/>
	<poly id="b77" type="building.apartments" color="0,0,255" fill="1" layer="-1.00" shape="3605,1505 3895,1505 3895,1795 3605,1795"/>
	<poly id="b78" type="building.apartments" color="0,0,255" fill="1" layer="-1.00" shape="5,1805 295,1805 295,2095 5,2095"/>
	<poly id="b79" type="building.apartments" color="0,0,255" fill="1" layer="-1.00" shape="305,1805 595,1805 595,2095 305,2095"/>
	<poly id="b80" type="building.apartments" color="0,0,255" fill="1" layer="-1.00" shape="605,1805 895,1805 895,2095 605,2095"/>
	<poly id="b81" type="building.apartments" color="0,0,255" fill="1" layer="-1.00" shape="905,1805 1195,1805 1195,2095 905,2095"/>
	<poly id="b82" type="building.apartments" color="0,0,255" fill="1" layer="-1.00" shape="1205,1805 1495,1805 1495,2095 1205,2095"/>
	<poly id="b83" type="building.apartments" color="0,0,255" fill="1" layer="-1.00" shape="1505,1805 1795,1805 1795,2095 1505,2095"/>
	<poly id="b84" type="building.apartments" color="0,0,255" fill="1" layer="-1.00" shape="1805,1805 2095,1805 2095,2095 1805,2095"/>
	<poly id="b85" type="building.apartments" color="0,0,255" fill="1" layer="-1.00" shape="2105,1805 2395,1805 2395,2095 2105,2095"/>
	<poly id="b86" type="building.apartments" color="0,0,255" fill="1" layer="-1.00" shape="2405,1805 2695,1805 2695,2095 2405,2095"/>
	<poly id="b87" type="building.apartments" color="0,0,255" fill="1" layer="-1.00" shape="2705,1805 2995,1805 2995,2095 2705,2095"/>
	<poly id="b88" type="building.apartments" color="0,0,255" fill="1" layer="-1.00" shape="3005,1805 3295,1805 3295,2095 3005,2095"/>
	<poly id="b89" type="building.apartments" color="0,0,255" fill="1" layer="-1.00" shape="3305,1805 3595,1805 3595,2095 3305,2095"/>
	<poly id="b90" type="building.apartments" color="0,0,255" fill="1" layer="-1.00" shape="3605,1805 3895,1805 3895,2095 3605,2095"/>
	<poly id="b91" type="building.apartments" color="0,0,255" fill="1" layer="-1.00" shape="5,2105 295,2105 295,2395 5,2395"/>
	<poly id="b92" type="building.apartments" color="0,0,255" fill="1" layer="-1.00" shape="305,2105 595,2105 595,2395 305,2395"/>
	<poly id="b93" type="building.apartments" color="0,0,255" fill="1" layer="-1.00" shape="605,2105 895,2105 895,2395 605,2395"/>
	<poly id="b94" type="building.apartments" color="0,0,255" fill="1" layer="-1.00" shape="905,2105 1195,2105 1195,2395 905,2395"/>
	<poly id="b95" type="building.apartments" color="0,0,255" fill="1" layer="-1.00" shape="1205,2105 1495,2105 1495,2395 1205,2395"/>
	<poly id="b96" type="building.apartments" color="0,0,255" fill="1" layer="-1.00" shape="1505,2105 1795,2105 1795,2395 1505,2395"/>
	<poly id="b97" type="building.apartments" color="0,0,255" fill="1" layer="-1.00" shape="1805,2105 2095,2105 2095,2395 1805,2395"/>
	<poly id="b98" type="building.apartments" color="0,0,255" fill="1" layer="-1.00" shape="2105,2105 2395,2105 2395,2395 2105,2395"/>
	<poly id="b99" type="building.apartments" color="0,0,255" fill="1" layer="-1.00" shape="2405,2105 2695,2105 2695,2395 2405,2395"/>
	<poly id="b100" type="building.apartments" color="0,0,255" fill="1" layer="-1.00" shape="2705,2105 2995,2105 2995,2395 2705,2395"/>
	<poly id="b101" type="building.apartments" color="0,0,255" fill="1" layer="-1.00" shape="3005,2105 3295,2105 3295,2395 3005,2395"/>
	<poly id="b102" type="building.apartments" color="0,0,255" fill="1" layer="-1.00" shape="3305,2105 3595,2105 3595,2395 3305,2395"/>
	<poly id="b103" type="building.apartments" color="0,0,255" fill="1" layer="-1.00" shape="3605,2105 3895,2105 3895,2395 3605,2395"/>
	<poly id="b104" type="building.apartments" color="0,0,255" fill="1" layer="-1.00" shape="5,2405 295,2405 295,2695 5,2695"/>
	<poly id="b105" type="building.apartments" color="0,0,255" fill="1" layer="-1.00" shape="305,2405 595,2405 595,2695 305,2695"/>
	<poly id="b106" type="building.apartments" color="0,0,255" fill="1" layer="-1.00" shape="605,2405 895,2405 895,2695 605,2695"/>
	<poly id="b107" type="building.apartments" color="0,0,255" fill="1" layer="-1.00" shape="905,2405 1195,2405 1195,2695 905,2695"/>
	<poly id="b108" type="building.apartments" color="0,0,255" fill="1" layer="-1.00" shape="1205,2405 1495,2405 1495,2695 1205,2695"/>
	<poly id="b109" type="building.apartments" color="0,0,255" fill="1" layer="-1.00" shape="1505,2405 1795,2405 1795,2695 1505,2695"/>
	<poly id="b110" type="building.apartments" color="0,0,255" fill="1" layer="-1.00" shape="1805,2405 2095,2405 2095,2695 1805,2695"/>
	<poly id="b111" type="building.apartments" color="0,0,255" fill="1" layer="-1.00" shape="2105,2405 2395,2405 2395,2695 2105,2695"/>
	<poly id="b112" type="building.apartments" color="0,0,255" fill="1" layer="-1.00" shape="2405,2405 2695,2405 2695,2695 2405,2695"/>
	<poly id="b113" type="building.apartments" color="0,0,255" fill="1" layer="-1.00" shape="2705,2405 2995,2405 2995,2695 2705,2695"/>
	<poly id="b114" type="building.apartments" color="0,0,255" fill="1" layer="-1.00" shape="3005,2405 3295,2405 3295,2695 3005,2695"/>
	<poly id="b115" type="building.apartments" color="0,0,255" fill="1" layer="-1.00" shape="3305,2405 3595,2405 3595,2695 3305,2695"/>
	<poly id="b116" type="building.apartments" color="0,0,255" fill="1" layer="-1.00" shape="3605,2405 3895,2405 3895,2695 3605,2695"/>
	<poly id="b117" type="building.apartments" color="0,0,255" fill="1" layer="-1.00" shape="5,2705 295,2705 295,2995 5,2995"/>
	<poly id="b118" type="building.apartments" color="0,0,255" fill="1" layer="-1.00" shape="305,2705 595,2705 595,2995 305,2995"/>
	<poly id="b119" type="building.apartments" color="0,0,255" fill="1" layer="-1.00" shape="605,2705 895,2705 895,2995 605,2995"/>
	<poly id="b120" type="building.apartments" color="0,0,255" fill="1" layer="-1.00" shape="905,2705 1195,2705 1195,2995 905,2995"/>
	<poly id="b121" type="building.apartments" color="0,0,255" fill="1" layer="-1.00" shape="1205,2705 1495,2705 1495,2995 1205,2995"/>
	<poly id="b122" type="building.apartments" color="0,0,255" fill="1" layer="-1.00" shape="1505,2705 1795,2705 1795,2995 1505,2995"/>
	<poly id="b123" type="building.apartments" color="0,0,255" fill="1" layer="-1.00" shape="1805,2705 2095,2705 2095,2995 1805,2995"/>
	<poly id="b124" type="building.apartments" color="0,0,255" fill="1" layer="-1.00" shape="2105,2705 2395,2705 2395,2995 2105,2995"/>
	<poly id="b125" type="building.apartments" color="0,0,255" fill="1" layer="-1.00" shape="2405,2705 2695,2705 2695,2995 2405,2995"/>
	<poly id="b126" type="building.apartments" color="0,0,255" fill="1" layer="-1.00" shape="2705,2705 2995,2705 2995,2995 2705,2995"/>
	<poly id="b127" type="building.apartments" color="0,0,255" fill="1" layer="-1.00" shape="3005,2705 3295,2705 3295,2995 3005,2995"/>
	<poly id="b128" type="building.apartments" color="0,0,255" fill="1" layer="-1.00" shape="3305,2705 3595,2705 3595,2995 3305,2995"/>
	<poly id="b129" type="building.apartments" color="0,0,255" fill="1" layer="-1.00" shape="3605,2705 3895,2705 3895,2995 3605,2995"/>
	<poly id="b130" type="building.apartments" color="0,0,255" fill="1" layer="-1.00" shape="5,3005 295,3005 295,3295 5,3295"/>
	<poly id="b131" type="building.apartments" color="0,0,255" fill="1" layer="-1.00" shape="305,3005 595,3005 595,3295 305,3295"/>
	<poly id="b132" type="building.apartments" color="0,0,255" fill="1" layer="-1.00" shape="605,3005 895,3005 895,3295 605,3295"/>
	<poly id="b133" type="building.apartments" color="0,0,255" fill="1" layer="-1.00" shape="905,3005 1195,3005 1195,3295 905,3295"/>
	<poly id="b134" type="building.apartments" color="0,0,255" fill="1" layer="-1.00" shape="1205,3005 1495,3005 1495,3295 1205,3295"/>
	<poly id="b135" type="building.apartments" color="0,0,255" fill="1" layer="-1.00" shape="1505,3005 1795,3005 1795,3295 1505,3295"/>
	<poly id="b136" type="building.apartments" color="0,0,255" fill="1" layer="-1.00" shape="1805,3005 2095,3005 2095,3295 1805,3295"/>
	<poly id="b137" type="building.apartments" color="0,0,255" fill="1" layer="-1.00" shape="2105,3005 2395,3005 2395,3295 2105,3295"/>
	<poly id="b138" type="building.apartments" color="0,0,255" fill="1" layer="-1.00" shape="2405,3005 2695,3005 2695,3295 2405,3295"/>
	<poly id="b139" type="building.apartments" color="0,0,255" fill="1" layer="-1.00" shape="2705,3005 2995,3005 2995,3295 2705,3295"/>
	<poly id="b140" type="building.apartments" color="0,0,255" fill="1" layer="-1.00" shape="3005,3005 3295,3005 3295,3295 3005,3295"/>
	<poly id="b141" type="building.apartments" color="0,0,255" fill="1" layer="-1.00" shape="3305,3005 3595,3005 3595,3295 3305,3295"/>
	<poly id="b142" type="building.apartments" color="0,0,255" fill="1" layer="-1.00" shape="3605,3005 3895,3005 3895,3295 3605,3295"/>
	<poly id="b143" type="building.apartments" color="0,0,255" fill="1" layer="-1.00" shape="5,3305 295,3305 295,3595 5,3595"/>
	<poly id="b144" type="building.apartments" color="0,0,255" fill="1" layer="-1.00" shape="305,3305 595,3305 595,3595 305,3595"/>
	<poly id="b145" type="building.apartments" color="0,0,255" fill="1" layer="-1.00" shape="605,3305 895,3305 895,3595 605,3595"/>
	<poly id="b146" type="building.apartments" color="0,0,255" fill="1" layer="-1.00" shape="905,3305 1195,3305 1195,3595 905,3595"/>
	<poly id="b147" type="building.apartments" color="0,0,255" fill="1" layer="-1.00" shape="1205,3305 1495,3305 1495,3595 1205,3595"/>
	<poly id="b148" type="building.apartments" color="0,0,255" fill="1" layer="-1.00" shape="1505,3305 1795,3305 1795,3595 1505,3595"/>
	<poly id="b149" type="building.apartments" color="0,0,255" fill="1" layer="-1.00" shape="1805,3305 2095,3305 2095,3595 1805,3595"/>
	<poly id="b150" type="building.apartments" color="0,0,255" fill="1" layer="-1.00" shape="2105,3305 2395,3305 2395,3595 2105,3595"/>
	<poly id="b151" type="building.apartments" color="0,0,255" fill="1" layer="-1.00" shape="2405,3305 2695,3305 2695,3595 2405,3595"/>
	<poly id="b152" type="building.apartments" color="0,0,255" fill="1" layer="-1.00" shape="2705,3305 2995,3305 2995,3595 2705,3595"/>
	<poly id="b153" type="building.apartments" color="0,0,255" fill="1" layer="-1.00" shape="3005,3305 3295,3305 3295,3595 3005,3595"/>
	<poly id="b154" type="building.apartments" color="0,0,255" fill="1" layer="-1.00" shape="3305,3305 3595,3305 3595,3595 3305,3595"/>
	<poly id="b155" type="building.apartments" color="0,0,255" fill="1" layer="-1.00" shape="3605,3305 3895,3305 3895,3595 3605,3595"/>
	<poly id="b156" type="building.apartments" color="0,0,255" fill="1" layer="-1.00" shape="5,3605 295,3605 295,3895 5,3895"/>
	<poly id="b157" type="building.apartments" color="0,0,255" fill="1" layer="-1.00" shape="305,3605 595,3605 595,3895 305,3895"/>
	<poly id="b158" type="building.apartments" color="0,0,255" fill="1" layer="-1.00" shape="605,3605 895,3605 895,3895 605,3895"/>
	<poly id="b159" type="building.apartments" color="0,0,255" fill="1" layer="-1.00" shape="905,3605 1195,3605 1195,3895 905,3895"/>
	<poly id="b160" type="building.apartments" color="0,0,255" fill="1" layer="-1.00" shape="1205,3605 1495,3605 1495,3895 1205,3895"/>
	<poly id="b161" type="building.apartments" color="0,0,255" fill="1" layer="-1.00" shape="1505,3605 1795,3605 1795,3895 1505,3895"/>
	<poly id="b162" type="building.apartments" color="0,0,255" fill="1" layer="-1.00" shape="1805,3605 2095,3605 2095,3895 1805,3895"/>
	<poly id="b163" type="building.apartments" color="0,0,255" fill="1" layer="-1.00" shape="2105,3605 2395,3605 2395,3895 2105,3895"/>
	<poly id="b164" type="building.apartments" color="0,0,255" fill="1" layer="-1.00" shape="2405,3605 2695,3605 2695,3895 2405,3895"/>
	<poly id="b165" type="building.apartments" color="0,0,255" fill="1" layer="-1.00" shape="2705,3605 2995,3605 2995,3895 2705,3895"/>
	<poly id="b166" type="building.apartments" color="0,0,255" fill="1" layer="-1.00" shape="3005,3605 3295,3605 3295,3895 3005,3895"/>
	<poly id="b167" type="building.apartments" color="0,0,255" fill="1" layer="-1.00" shape="3305,3605 3595,3605 3595,3895 3305,3895"/>
	<poly id="b168" type="building.apartments" color="0,0,255" fill="1" layer="-1.00" shape="3605,3605 3895,3605 3895,3895 3605,3895"/>
</additional>
